<?xml version="1.0" encoding="UTF-8"?>

<!-- generated on 2025-06-13 03:43:02 by Eclipse SUMO netedit Version 1.23.1
<neteditConfiguration xmlns:xsi="http://www.w3.org/2001/XMLSchema-instance" xsi:noNamespaceSchemaLocation="http://sumo.dlr.de/xsd/neteditConfiguration.xsd">

    <input>
        <sumocfg-file value="C:\Projet Mehdi\map.sumo.cfg"/>
        <additional-files value="C:\Projet Mehdi\map.poly.xml"/>
        <route-files value="C:\Projet Mehdi\routes_finales_alternatives.rou.xml"/>
        <sumo-net-file value="C:\Projet Mehdi\goodmap.net.xml"/>
    </input>

    <output>
        <output-file value="C:\Projet Mehdi\goodmap.net.xml"/>
    </output>

    <processing>
        <geometry.min-radius.fix.railways value="false"/>
        <geometry.avoid-overlap value="false"/>
        <geometry.max-grade.fix value="false"/>
        <offset.disable-normalization value="true"/>
        <lefthand value="0"/>
    </processing>

    <junctions>
        <no-turnarounds value="true"/>
        <junctions.corner-detail value="5"/>
        <junctions.limit-turn-speed value="5.50"/>
        <rectangular-lane-cut value="0"/>
    </junctions>

    <pedestrian>
        <walkingareas value="0"/>
    </pedestrian>

    <netedit>
        <ignore.routeelements value="false"/>
    </netedit>

</neteditConfiguration>
-->

<net version="1.20" junctionCornerDetail="5" limitTurnSpeed="5.50" avoidOverlap="0" xmlns:xsi="http://www.w3.org/2001/XMLSchema-instance" xsi:noNamespaceSchemaLocation="http://sumo.dlr.de/xsd/net_file.xsd">

    <location netOffset="-627284.07,-3715264.71" convBoundary="0.00,0.00,4021.72,2938.83" origBoundary="-7.628436,33.569450,-7.584878,33.595861" projParameter="+proj=utm +zone=29 +ellps=WGS84 +datum=WGS84 +units=m +no_defs"/>

    <type id="highway.footway" priority="1" numLanes="1" speed="2.78" allow="pedestrian" oneway="1" width="2.00"/>
    <type id="highway.path" priority="1" numLanes="1" speed="5.56" allow="pedestrian bicycle" oneway="0" width="2.00"/>
    <type id="highway.primary" priority="12" numLanes="2" speed="27.78" disallow="tram rail_urban rail rail_electric rail_fast ship container cable_car subway aircraft wheelchair scooter drone" oneway="0"/>
    <type id="highway.residential" priority="3" numLanes="1" speed="13.89" disallow="tram rail_urban rail rail_electric rail_fast ship container cable_car subway aircraft wheelchair scooter drone" oneway="0"/>
    <type id="highway.secondary" priority="11" numLanes="1" speed="27.78" disallow="tram rail_urban rail rail_electric rail_fast ship container cable_car subway aircraft wheelchair scooter drone" oneway="0"/>
    <type id="highway.secondary_link" priority="6" numLanes="1" speed="22.22" disallow="tram rail_urban rail rail_electric rail_fast ship container cable_car subway aircraft wheelchair scooter drone" oneway="0"/>
    <type id="highway.service" priority="1" numLanes="1" speed="5.56" allow="pedestrian delivery bicycle" oneway="0"/>
    <type id="highway.tertiary" priority="10" numLanes="1" speed="22.22" disallow="tram rail_urban rail rail_electric rail_fast ship container cable_car subway aircraft wheelchair scooter drone" oneway="0"/>
    <type id="railway.tram" priority="17" numLanes="1" speed="13.89" allow="tram" oneway="1"/>

    <edge id=":10126367336_0" function="internal">
        <lane id=":10126367336_0_0" index="0" allow="tram" speed="5.89" length="4.17" shape="669.45,2029.07 670.08,2029.94 670.88,2030.46 671.85,2030.63 672.99,2030.46"/>
    </edge>
    <edge id=":10126367336_1" function="internal">
        <lane id=":10126367336_1_0" index="0" allow="tram" speed="13.89" length="5.00" shape="669.45,2029.07 670.13,2030.38 670.55,2031.31 670.91,2032.26 671.37,2033.67"/>
    </edge>
    <edge id=":10126367336_2" function="internal">
        <lane id=":10126367336_2_0" index="0" allow="tram" speed="13.89" length="3.52" shape="669.64,2031.54 670.61,2031.15 671.29,2030.93 671.98,2030.74 672.99,2030.46"/>
    </edge>
    <edge id=":10126367337_0" function="internal">
        <lane id=":10126367337_0_0" index="0" allow="tram" speed="13.89" length="5.08" shape="676.88,2032.33 676.38,2030.91 676.01,2029.94 675.58,2029.00 674.89,2027.67"/>
    </edge>
    <edge id=":10126367337_1" function="internal">
        <lane id=":10126367337_1_0" index="0" allow="tram" speed="13.89" length="4.17" shape="673.18,2030.40 674.36,2030.04 675.18,2029.80 676.01,2029.63 677.24,2029.51"/>
    </edge>
    <edge id=":10126367339_0" function="internal">
        <lane id=":10126367339_0_0" index="0" allow="tram" speed="13.89" length="9.32" shape="688.75,2033.92 685.99,2033.69 684.08,2033.58 682.20,2033.77 679.53,2034.42"/>
    </edge>
    <edge id=":10126367339_1" function="internal">
        <lane id=":10126367339_1_0" index="0" disallow="tram rail_urban rail rail_electric rail_fast ship container cable_car subway aircraft wheelchair scooter drone" speed="27.78" length="3.45" shape="683.38,2031.18 684.86,2034.30"/>
        <lane id=":10126367339_1_1" index="1" disallow="tram rail_urban rail rail_electric rail_fast ship container cable_car subway aircraft wheelchair scooter drone" speed="27.78" length="3.45" shape="680.49,2032.55 681.96,2035.67"/>
    </edge>
    <edge id=":10126367340_0" function="internal">
        <lane id=":10126367340_0_0" index="0" allow="tram" speed="13.89" length="0.26" shape="705.58,2030.53 705.84,2030.55"/>
    </edge>
    <edge id=":10126367344_0" function="internal">
        <lane id=":10126367344_0_0" index="0" disallow="tram rail_urban rail rail_electric rail_fast ship container cable_car subway aircraft wheelchair scooter drone" speed="13.89" length="5.76" shape="823.41,2046.72 819.61,2042.24"/>
        <lane id=":10126367344_0_1" index="1" disallow="tram rail_urban rail rail_electric rail_fast ship container cable_car subway aircraft wheelchair scooter drone" speed="13.89" length="5.76" shape="825.79,2044.58 822.13,2040.27"/>
    </edge>
    <edge id=":10126367344_2" function="internal">
        <lane id=":10126367344_2_0" index="0" allow="tram" speed="13.89" length="15.36" shape="830.25,2043.86 814.96,2042.44"/>
    </edge>
    <edge id=":10126367364_0" function="internal">
        <lane id=":10126367364_0_0" index="0" disallow="tram rail_urban rail rail_electric rail_fast ship container cable_car subway aircraft wheelchair scooter drone" speed="10.27" length="10.24" shape="1088.37,2058.97 1085.40,2056.83 1082.92,2055.36 1080.91,2054.55 1079.39,2054.43"/>
        <lane id=":10126367364_0_1" index="1" disallow="tram rail_urban rail rail_electric rail_fast ship container cable_car subway aircraft wheelchair scooter drone" speed="11.45" length="12.83" shape="1090.33,2056.44 1086.79,2053.94 1083.71,2052.24 1081.07,2051.35 1078.88,2051.27"/>
    </edge>
    <edge id=":10126367364_2" function="internal">
        <lane id=":10126367364_2_0" index="0" disallow="tram rail_urban rail rail_electric rail_fast ship container cable_car subway aircraft wheelchair scooter drone" speed="16.67" length="12.08" shape="1091.34,2052.22 1079.39,2054.43"/>
        <lane id=":10126367364_2_1" index="1" disallow="tram rail_urban rail rail_electric rail_fast ship container cable_car subway aircraft wheelchair scooter drone" speed="16.67" length="12.08" shape="1090.75,2049.08 1078.88,2051.27"/>
        <lane id=":10126367364_2_2" index="2" disallow="tram rail_urban rail rail_electric rail_fast ship container cable_car subway aircraft wheelchair scooter drone" speed="16.67" length="12.08" shape="1090.16,2045.93 1078.37,2048.11"/>
    </edge>
    <edge id=":10126367365_0" function="internal">
        <lane id=":10126367365_0_0" index="0" allow="tram" speed="13.89" length="11.95" shape="1189.28,2028.53 1177.50,2030.52"/>
    </edge>
    <edge id=":10126367365_1" function="internal">
        <lane id=":10126367365_1_0" index="0" disallow="tram rail_urban rail rail_electric rail_fast ship container cable_car subway aircraft wheelchair scooter drone" speed="13.89" length="0.84" shape="1185.05,2029.17 1185.21,2028.17"/>
        <lane id=":10126367365_1_1" index="1" disallow="tram rail_urban rail rail_electric rail_fast ship container cable_car subway aircraft wheelchair scooter drone" speed="13.89" length="0.84" shape="1182.07,2028.00 1182.12,2027.33"/>
    </edge>
    <edge id=":10126367367_0" function="internal">
        <lane id=":10126367367_0_0" index="0" disallow="tram rail_urban rail rail_electric rail_fast ship container cable_car subway aircraft wheelchair scooter drone" speed="11.73" length="16.19" shape="1192.46,2033.62 1187.94,2034.64 1184.20,2036.31 1181.23,2038.63 1179.04,2041.60"/>
    </edge>
    <edge id=":10126367367_1" function="internal">
        <lane id=":10126367367_1_0" index="0" disallow="tram rail_urban rail rail_electric rail_fast ship container cable_car subway aircraft wheelchair scooter drone" speed="16.67" length="21.59" shape="1192.46,2033.62 1171.31,2037.16"/>
        <lane id=":10126367367_1_1" index="1" disallow="tram rail_urban rail rail_electric rail_fast ship container cable_car subway aircraft wheelchair scooter drone" speed="16.67" length="21.59" shape="1192.02,2030.45 1170.72,2034.01"/>
        <lane id=":10126367367_1_2" index="2" disallow="tram rail_urban rail rail_electric rail_fast ship container cable_car subway aircraft wheelchair scooter drone" speed="16.67" length="21.59" shape="1191.57,2027.28 1170.13,2030.87"/>
    </edge>
    <edge id=":10126367367_4" function="internal">
        <lane id=":10126367367_4_0" index="0" disallow="tram rail_urban rail rail_electric rail_fast ship container cable_car subway aircraft wheelchair scooter drone" speed="13.89" length="14.65" shape="1185.16,2028.36 1183.74,2032.78 1182.29,2035.97 1180.74,2038.67 1179.04,2041.60"/>
    </edge>
    <edge id=":10126367367_5" function="internal">
        <lane id=":10126367367_5_0" index="0" disallow="tram rail_urban rail rail_electric rail_fast ship container cable_car subway aircraft wheelchair scooter drone" speed="9.19" length="12.49" shape="1182.07,2027.52 1181.21,2028.17 1178.93,2028.94 1175.24,2029.84 1170.13,2030.87"/>
    </edge>
    <edge id=":10126367367_6" function="internal">
        <lane id=":10126367367_6_0" index="0" disallow="tram rail_urban rail rail_electric rail_fast ship container cable_car subway aircraft wheelchair scooter drone" speed="5.15" length="8.03" shape="1176.23,2040.06 1176.80,2038.28 1176.17,2037.20 1174.34,2036.83 1171.31,2037.16"/>
    </edge>
    <edge id=":10126367367_7" function="internal">
        <lane id=":10126367367_7_0" index="0" disallow="tram rail_urban rail rail_electric rail_fast ship container cable_car subway aircraft wheelchair scooter drone" speed="3.65" length="4.67" shape="1176.23,2040.06 1177.51,2039.39 1178.40,2039.43 1178.91,2040.16 1179.04,2041.60"/>
    </edge>
    <edge id=":10126367370_0" function="internal">
        <lane id=":10126367370_0_0" index="0" disallow="tram rail_urban rail rail_electric rail_fast ship container cable_car subway aircraft wheelchair scooter drone" speed="6.87" length="5.64" shape="1226.34,2009.07 1227.70,2008.61 1228.84,2007.87 1229.75,2006.85 1230.43,2005.54"/>
        <lane id=":10126367370_0_1" index="1" disallow="tram rail_urban rail rail_electric rail_fast ship container cable_car subway aircraft wheelchair scooter drone" speed="7.84" length="7.53" shape="1226.34,2009.07 1229.30,2008.39 1231.46,2007.77 1232.83,2007.21 1233.41,2006.71"/>
    </edge>
    <edge id=":10126367370_2" function="internal">
        <lane id=":10126367370_2_0" index="0" disallow="tram rail_urban rail rail_electric rail_fast ship container cable_car subway aircraft wheelchair scooter drone" speed="27.78" length="9.99" shape="1226.34,2009.07 1229.28,2008.92 1231.28,2009.61 1233.31,2010.47 1236.30,2010.85"/>
        <lane id=":10126367370_2_1" index="1" disallow="tram rail_urban rail rail_electric rail_fast ship container cable_car subway aircraft wheelchair scooter drone" speed="27.78" length="9.99" shape="1227.01,2012.20 1229.77,2012.08 1231.65,2012.79 1233.55,2013.67 1236.37,2014.05"/>
    </edge>
    <edge id=":10126367376_0" function="internal">
        <lane id=":10126367376_0_0" index="0" disallow="tram rail_urban rail rail_electric rail_fast ship container cable_car subway aircraft wheelchair scooter drone" speed="9.49" length="9.46" shape="1334.92,2047.97 1333.73,2044.86 1332.53,2042.51 1331.33,2040.91 1330.11,2040.06"/>
        <lane id=":10126367376_0_1" index="1" disallow="tram rail_urban rail rail_electric rail_fast ship container cable_car subway aircraft wheelchair scooter drone" speed="10.73" length="12.21" shape="1337.95,2046.93 1336.47,2043.18 1334.86,2040.29 1333.13,2038.25 1331.27,2037.08"/>
    </edge>
    <edge id=":10126367376_2" function="internal">
        <lane id=":10126367376_2_0" index="0" disallow="tram rail_urban rail rail_electric rail_fast ship container cable_car subway aircraft wheelchair scooter drone" speed="16.67" length="11.39" shape="1341.12,2043.70 1330.11,2040.06"/>
        <lane id=":10126367376_2_1" index="1" disallow="tram rail_urban rail rail_electric rail_fast ship container cable_car subway aircraft wheelchair scooter drone" speed="16.67" length="11.39" shape="1342.09,2040.65 1331.27,2037.08"/>
        <lane id=":10126367376_2_2" index="2" disallow="tram rail_urban rail rail_electric rail_fast ship container cable_car subway aircraft wheelchair scooter drone" speed="16.67" length="11.39" shape="1343.06,2037.60 1332.44,2034.10"/>
    </edge>
    <edge id=":10126367380_0" function="internal">
        <lane id=":10126367380_0_0" index="0" disallow="tram rail_urban rail rail_electric rail_fast ship container cable_car subway aircraft wheelchair scooter drone" speed="6.86" length="9.18" shape="1355.57,2026.79 1355.30,2029.48 1355.78,2031.64 1356.99,2033.26 1358.95,2034.35"/>
        <lane id=":10126367380_0_1" index="1" disallow="tram rail_urban rail rail_electric rail_fast ship container cable_car subway aircraft wheelchair scooter drone" speed="8.30" length="13.88" shape="1352.44,2026.11 1352.08,2030.07 1352.87,2033.27 1354.80,2035.70 1357.88,2037.37"/>
    </edge>
    <edge id=":10126367380_2" function="internal">
        <lane id=":10126367380_2_0" index="0" disallow="tram rail_urban rail rail_electric rail_fast ship container cable_car subway aircraft wheelchair scooter drone" speed="27.78" length="13.82" shape="1346.21,2029.40 1350.10,2030.52 1352.66,2031.61 1355.17,2032.84 1358.95,2034.35"/>
        <lane id=":10126367380_2_1" index="1" disallow="tram rail_urban rail rail_electric rail_fast ship container cable_car subway aircraft wheelchair scooter drone" speed="27.78" length="13.82" shape="1344.89,2032.38 1348.85,2033.51 1351.47,2034.60 1354.04,2035.84 1357.88,2037.37"/>
    </edge>
    <edge id=":10126367387_0" function="internal">
        <lane id=":10126367387_0_0" index="0" disallow="tram rail_urban rail rail_electric rail_fast ship container cable_car subway aircraft wheelchair scooter drone" speed="6.02" length="9.07" shape="1465.43,2093.36 1466.61,2091.06 1466.64,2089.11 1465.53,2087.51 1463.26,2086.27"/>
        <lane id=":10126367387_0_1" index="1" disallow="tram rail_urban rail rail_electric rail_fast ship container cable_car subway aircraft wheelchair scooter drone" speed="7.62" length="15.28" shape="1468.04,2095.21 1470.03,2091.34 1470.08,2088.06 1468.20,2085.37 1464.38,2083.27"/>
        <lane id=":10126367387_0_2" index="2" disallow="tram rail_urban rail rail_electric rail_fast ship container cable_car subway aircraft wheelchair scooter drone" speed="8.31" length="18.43" shape="1468.04,2095.21 1470.82,2090.14 1471.32,2085.96 1469.55,2082.67 1465.51,2080.28"/>
    </edge>
    <edge id=":10126367414_0" function="internal">
        <lane id=":10126367414_0_0" index="0" allow="tram" speed="13.89" length="5.05" shape="995.94,2058.23 994.45,2058.30 993.42,2058.40 992.40,2058.44 990.91,2058.33"/>
    </edge>
    <edge id=":10126367414_1" function="internal">
        <lane id=":10126367414_1_0" index="0" disallow="tram rail_urban rail rail_electric rail_fast ship container cable_car subway aircraft wheelchair scooter drone" speed="22.22" length="0.14" shape="992.72,2056.90 992.84,2056.95"/>
    </edge>
    <edge id=":10126367414_2" function="internal">
        <lane id=":10126367414_2_0" index="0" disallow="tram rail_urban rail rail_electric rail_fast ship container cable_car subway aircraft wheelchair scooter drone" speed="22.22" length="0.25" shape="989.79,2055.98 989.60,2056.15"/>
    </edge>
    <edge id=":10126367416_0" function="internal">
        <lane id=":10126367416_0_0" index="0" disallow="tram rail_urban rail rail_electric rail_fast ship container cable_car subway aircraft wheelchair scooter drone" speed="27.78" length="5.08" shape="394.42,2169.01 389.86,2171.17"/>
        <lane id=":10126367416_0_1" index="1" disallow="tram rail_urban rail rail_electric rail_fast ship container cable_car subway aircraft wheelchair scooter drone" speed="27.78" length="5.08" shape="393.09,2166.11 388.46,2168.29"/>
    </edge>
    <edge id=":10126379617_0" function="internal">
        <lane id=":10126379617_0_0" index="0" disallow="tram rail_urban rail rail_electric rail_fast ship container cable_car subway aircraft wheelchair scooter drone" speed="27.78" length="5.21" shape="431.11,2152.22 426.37,2154.39"/>
        <lane id=":10126379617_0_1" index="1" disallow="tram rail_urban rail rail_electric rail_fast ship container cable_car subway aircraft wheelchair scooter drone" speed="27.78" length="5.21" shape="429.77,2149.31 425.04,2151.48"/>
    </edge>
    <edge id=":10126379618_0" function="internal">
        <lane id=":10126379618_0_0" index="0" disallow="tram rail_urban rail rail_electric rail_fast ship container cable_car subway aircraft wheelchair scooter drone" speed="27.78" length="3.74" shape="666.70,2035.37 665.05,2032.04"/>
        <lane id=":10126379618_0_1" index="1" disallow="tram rail_urban rail rail_electric rail_fast ship container cable_car subway aircraft wheelchair scooter drone" speed="27.78" length="3.74" shape="669.57,2033.96 667.90,2030.60"/>
    </edge>
    <edge id=":10126379618_2" function="internal">
        <lane id=":10126379618_2_0" index="0" allow="tram" speed="13.89" length="7.43" shape="662.54,2034.31 669.46,2031.61"/>
    </edge>
    <edge id=":10126379619_0" function="internal">
        <lane id=":10126379619_0_0" index="0" disallow="tram rail_urban rail rail_electric rail_fast ship container cable_car subway aircraft wheelchair scooter drone" speed="27.78" length="4.88" shape="681.21,2026.59 683.30,2031.00"/>
        <lane id=":10126379619_0_1" index="1" disallow="tram rail_urban rail rail_electric rail_fast ship container cable_car subway aircraft wheelchair scooter drone" speed="27.78" length="4.88" shape="678.32,2027.96 680.41,2032.37"/>
    </edge>
    <edge id=":10126379619_2" function="internal">
        <lane id=":10126379619_2_0" index="0" allow="tram" speed="13.89" length="9.06" shape="677.44,2029.50 686.49,2029.24"/>
    </edge>
    <edge id=":10126379621_0" function="internal">
        <lane id=":10126379621_0_0" index="0" disallow="tram rail_urban rail rail_electric rail_fast ship container cable_car subway aircraft wheelchair scooter drone" speed="13.89" length="3.03" shape="819.49,2042.08 817.58,2039.58"/>
        <lane id=":10126379621_0_1" index="1" disallow="tram rail_urban rail rail_electric rail_fast ship container cable_car subway aircraft wheelchair scooter drone" speed="13.89" length="3.03" shape="822.01,2040.11 820.24,2037.79"/>
    </edge>
    <edge id=":10126379621_2" function="internal">
        <lane id=":10126379621_2_0" index="0" allow="tram" speed="13.89" length="14.35" shape="812.38,2038.59 826.67,2039.93"/>
    </edge>
    <edge id=":10126379622_0" function="internal">
        <lane id=":10126379622_0_0" index="0" allow="tram" speed="13.89" length="11.38" shape="861.03,2046.56 849.69,2045.59"/>
    </edge>
    <edge id=":10126379622_1" function="internal">
        <lane id=":10126379622_1_0" index="0" disallow="tram rail_urban rail rail_electric rail_fast ship container cable_car subway aircraft wheelchair scooter drone" speed="13.89" length="2.96" shape="857.45,2045.53 856.06,2048.10"/>
        <lane id=":10126379622_1_1" index="1" disallow="tram rail_urban rail rail_electric rail_fast ship container cable_car subway aircraft wheelchair scooter drone" speed="13.89" length="2.96" shape="854.66,2043.97 853.23,2046.61"/>
    </edge>
    <edge id=":10126379632_0" function="internal">
        <lane id=":10126379632_0_0" index="0" disallow="tram rail_urban rail rail_electric rail_fast ship container cable_car subway aircraft wheelchair scooter drone" speed="5.64" length="9.28" shape="1191.88,2010.40 1191.28,2013.14 1191.81,2014.89 1193.47,2015.66 1196.27,2015.44"/>
        <lane id=":10126379632_0_1" index="1" disallow="tram rail_urban rail rail_electric rail_fast ship container cable_car subway aircraft wheelchair scooter drone" speed="7.39" length="17.04" shape="1188.87,2009.31 1187.76,2014.35 1188.74,2017.57 1191.79,2018.98 1196.93,2018.57"/>
    </edge>
    <edge id=":10126379632_2" function="internal">
        <lane id=":10126379632_2_0" index="0" disallow="tram rail_urban rail rail_electric rail_fast ship container cable_car subway aircraft wheelchair scooter drone" speed="13.89" length="17.89" shape="1188.87,2009.31 1187.54,2014.46 1187.37,2018.18 1187.19,2021.90 1185.86,2027.05"/>
        <lane id=":10126379632_2_1" index="1" disallow="tram rail_urban rail rail_electric rail_fast ship container cable_car subway aircraft wheelchair scooter drone" speed="13.89" length="17.89" shape="1188.87,2009.31 1182.85,2025.96"/>
    </edge>
    <edge id=":10126379632_4" function="internal">
        <lane id=":10126379632_4_0" index="0" disallow="tram rail_urban rail rail_electric rail_fast ship container cable_car subway aircraft wheelchair scooter drone" speed="27.78" length="20.78" shape="1177.10,2024.77 1196.93,2018.57"/>
    </edge>
    <edge id=":10126379632_5" function="internal">
        <lane id=":10126379632_5_0" index="0" disallow="tram rail_urban rail rail_electric rail_fast ship container cable_car subway aircraft wheelchair scooter drone" speed="5.01" length="7.17" shape="1177.10,2024.77 1180.01,2024.20 1181.94,2024.21 1182.88,2024.79 1182.85,2025.96"/>
    </edge>
    <edge id=":1129495630_0" function="internal">
        <lane id=":1129495630_0_0" index="0" disallow="tram rail_urban rail rail_electric rail_fast ship container cable_car subway aircraft wheelchair scooter drone" speed="13.89" length="11.33" shape="1333.03,2103.10 1330.34,2100.93 1328.40,2099.42 1326.48,2098.10 1323.86,2096.46"/>
    </edge>
    <edge id=":1129495630_1" function="internal">
        <lane id=":1129495630_1_0" index="0" disallow="tram rail_urban rail rail_electric rail_fast ship container cable_car subway aircraft wheelchair scooter drone" speed="5.07" length="7.97" shape="1335.04,2100.61 1333.08,2098.68 1332.50,2097.19 1333.31,2096.13 1335.51,2095.51"/>
    </edge>
    <edge id=":1129495630_2" function="internal">
        <lane id=":1129495630_2_0" index="0" disallow="tram rail_urban rail rail_electric rail_fast ship container cable_car subway aircraft wheelchair scooter drone" speed="8.41" length="8.51" shape="1325.53,2093.73 1326.97,2094.23 1328.81,2094.22 1331.06,2093.71 1333.70,2092.68"/>
    </edge>
    <edge id=":1129495630_3" function="internal">
        <lane id=":1129495630_3_0" index="0" disallow="tram rail_urban rail rail_electric rail_fast ship container cable_car subway aircraft wheelchair scooter drone" speed="3.65" length="1.44" shape="1325.53,2093.73 1326.14,2095.04"/>
    </edge>
    <edge id=":1129495630_4" function="internal">
        <lane id=":1129495630_4_0" index="0" disallow="tram rail_urban rail rail_electric rail_fast ship container cable_car subway aircraft wheelchair scooter drone" speed="3.65" length="3.23" shape="1326.14,2095.04 1326.06,2095.93 1325.30,2096.40 1323.86,2096.46"/>
    </edge>
    <edge id=":1129495635_0" function="internal">
        <lane id=":1129495635_0_0" index="0" disallow="tram rail_urban rail rail_electric rail_fast ship container cable_car subway aircraft wheelchair scooter drone" speed="7.64" length="8.99" shape="1443.40,2114.28 1446.24,2114.70 1448.57,2114.57 1450.41,2113.88 1451.74,2112.63"/>
        <lane id=":1129495635_0_1" index="1" disallow="tram rail_urban rail rail_electric rail_fast ship container cable_car subway aircraft wheelchair scooter drone" speed="9.00" length="12.76" shape="1442.69,2117.40 1446.52,2117.92 1449.73,2117.61 1452.34,2116.47 1454.35,2114.49"/>
    </edge>
    <edge id=":1129495635_2" function="internal">
        <lane id=":1129495635_2_0" index="0" disallow="tram rail_urban rail rail_electric rail_fast ship container cable_car subway aircraft wheelchair scooter drone" speed="13.89" length="12.20" shape="1444.74,2122.66 1451.74,2112.63"/>
        <lane id=":1129495635_2_1" index="1" disallow="tram rail_urban rail rail_electric rail_fast ship container cable_car subway aircraft wheelchair scooter drone" speed="13.89" length="12.20" shape="1447.37,2124.48 1454.35,2114.49"/>
    </edge>
    <edge id=":1130774278_0" function="internal">
        <lane id=":1130774278_0_0" index="0" disallow="tram rail_urban rail rail_electric rail_fast ship container cable_car subway aircraft wheelchair scooter drone" speed="6.16" length="9.05" shape="813.70,1498.43 813.33,1495.91 812.23,1494.26 810.41,1493.48 807.87,1493.57"/>
        <lane id=":1130774278_0_1" index="1" disallow="tram rail_urban rail rail_electric rail_fast ship container cable_car subway aircraft wheelchair scooter drone" speed="7.72" length="14.89" shape="816.90,1498.42 816.29,1494.28 814.49,1491.56 811.49,1490.28 807.31,1490.42"/>
    </edge>
    <edge id=":1130774278_2" function="internal">
        <lane id=":1130774278_2_0" index="0" disallow="tram rail_urban rail rail_electric rail_fast ship container cable_car subway aircraft wheelchair scooter drone" speed="16.67" length="14.41" shape="822.10,1490.92 807.87,1493.57"/>
        <lane id=":1130774278_2_1" index="1" disallow="tram rail_urban rail rail_electric rail_fast ship container cable_car subway aircraft wheelchair scooter drone" speed="16.67" length="14.41" shape="821.47,1487.78 807.31,1490.42"/>
        <lane id=":1130774278_2_2" index="2" disallow="tram rail_urban rail rail_electric rail_fast ship container cable_car subway aircraft wheelchair scooter drone" speed="16.67" length="14.41" shape="820.85,1484.64 806.74,1487.27"/>
    </edge>
    <edge id=":1130774278_5" function="internal">
        <lane id=":1130774278_5_0" index="0" disallow="tram rail_urban rail rail_electric rail_fast ship container cable_car subway aircraft wheelchair scooter drone" speed="16.67" length="14.23" shape="805.05,1477.82 818.98,1475.22"/>
        <lane id=":1130774278_5_1" index="1" disallow="tram rail_urban rail rail_electric rail_fast ship container cable_car subway aircraft wheelchair scooter drone" speed="16.67" length="14.23" shape="805.61,1480.97 819.60,1478.36"/>
        <lane id=":1130774278_5_2" index="2" disallow="tram rail_urban rail rail_electric rail_fast ship container cable_car subway aircraft wheelchair scooter drone" speed="16.67" length="14.23" shape="806.18,1484.12 820.23,1481.50"/>
    </edge>
    <edge id=":1130774281_0" function="internal">
        <lane id=":1130774281_0_0" index="0" disallow="tram rail_urban rail rail_electric rail_fast ship container cable_car subway aircraft wheelchair scooter drone" speed="6.93" length="8.87" shape="611.96,1536.79 610.78,1534.46 609.28,1532.90 607.47,1532.13 605.35,1532.13"/>
        <lane id=":1130774281_0_1" index="1" disallow="tram rail_urban rail rail_electric rail_fast ship container cable_car subway aircraft wheelchair scooter drone" speed="8.37" length="13.33" shape="614.95,1535.66 613.20,1532.27 610.92,1530.03 608.12,1528.93 604.80,1528.98"/>
    </edge>
    <edge id=":1130774281_2" function="internal">
        <lane id=":1130774281_2_0" index="0" disallow="tram rail_urban rail rail_electric rail_fast ship container cable_car subway aircraft wheelchair scooter drone" speed="27.78" length="13.07" shape="618.24,1529.84 605.35,1532.13"/>
        <lane id=":1130774281_2_1" index="1" disallow="tram rail_urban rail rail_electric rail_fast ship container cable_car subway aircraft wheelchair scooter drone" speed="27.78" length="13.07" shape="617.67,1526.69 604.80,1528.98"/>
        <lane id=":1130774281_2_2" index="2" disallow="tram rail_urban rail rail_electric rail_fast ship container cable_car subway aircraft wheelchair scooter drone" speed="27.78" length="13.07" shape="617.10,1523.54 604.26,1525.82"/>
    </edge>
    <edge id=":1130779564_0" function="internal">
        <lane id=":1130779564_0_0" index="0" disallow="tram rail_urban rail rail_electric rail_fast ship container cable_car subway aircraft wheelchair scooter drone" speed="7.13" length="8.91" shape="695.65,1561.40 696.70,1563.12 698.31,1564.26 700.46,1564.80 703.16,1564.76"/>
        <lane id=":1130779564_0_1" index="1" disallow="tram rail_urban rail rail_electric rail_fast ship container cable_car subway aircraft wheelchair scooter drone" speed="7.88" length="11.06" shape="695.65,1561.40 697.17,1564.48 698.99,1566.60 701.11,1567.75 703.53,1567.94"/>
    </edge>
    <edge id=":1130779564_2" function="internal">
        <lane id=":1130779564_2_0" index="0" disallow="tram rail_urban rail rail_electric rail_fast ship container cable_car subway aircraft wheelchair scooter drone" speed="13.89" length="12.80" shape="695.65,1561.40 700.26,1573.34"/>