<?xml version="1.0" encoding="UTF-8"?>

<!-- generated on 2025-06-12 21:18:36 by Eclipse SUMO netedit Version 1.23.1
-->

<additional xmlns:xsi="http://www.w3.org/2001/XMLSchema-instance" xsi:noNamespaceSchemaLocation="http://sumo.dlr.de/xsd/additional_file.xsd">
    <!-- Shapes -->
    <poly id="1046175334" type="building" color="255,230,230" fill="1" layer="-1.00" shape="482.992189,1518.030978 491.248361,1514.924567 488.655467,1503.988365 480.273626,1507.470177 482.992189,1518.030978"/>
    <poly id="1110740811" type="building" color="255,230,230" fill="1" layer="-1.00" shape="986.417911,2166.321578 999.015410,2148.778551 1064.222048,2195.163957 1056.258793,2206.247703 1048.268774,2200.573649 1050.292621,2197.761563 1045.796583,2194.562956 1042.476785,2199.198725 1055.781062,2208.659008 1052.451984,2213.294649 986.417911,2166.321578"/>
    <poly id="1110740812" type="building" color="255,230,230" fill="1" layer="-1.00" shape="1203.025951,2232.962809 1189.055024,2250.465037 1179.034604,2242.545658 1184.783691,2235.325102 1177.757558,2229.763637 1171.196752,2237.993653 1152.836598,2223.486069 1152.100304,2224.407813 1140.380804,2215.134928 1141.966825,2213.137691 1138.733891,2210.576980 1137.327451,2212.332631 1133.874166,2209.591531 1139.755084,2202.228536 1130.956077,2195.279304 1128.633761,2198.198288 1125.152924,2195.434643 1130.958417,2188.159358 1126.329275,2184.504231 1122.779951,2188.948371 1120.401012,2187.075588 1123.827767,2182.773983 1106.928004,2169.406134 1103.935544,2173.159032 1094.521089,2165.724729 1103.583474,2154.356260 1203.025951,2232.962809"/>
    <poly id="1110740813" type="building" color="255,230,230" fill="1" layer="-1.00" shape="1255.414893,2179.309904 1280.104651,2142.520951 1288.572261,2148.567572 1273.809462,2169.042385 1313.398386,2197.309037 1308.679185,2203.855705 1312.329237,2206.455329 1328.595800,2183.893542 1353.382276,2201.603883 1354.450964,2200.120998 1369.878304,2211.129527 1355.956926,2230.451002 1346.661947,2223.816543 1342.377780,2229.759051 1351.341645,2236.167267 1343.605550,2246.898940 1255.414893,2179.309904"/>
    <poly id="1110740814" type="building" color="255,230,230" fill="1" layer="-1.00" shape="1256.699931,2049.947512 1256.561365,2036.714917 1276.965672,2036.511011 1277.104358,2049.732519 1256.699931,2049.947512"/>
    <poly id="1110940556" type="building" color="255,230,230" fill="1" layer="-1.00" shape="1142.689736,1470.074939 1188.306076,1475.442353 1190.701441,1455.267851 1202.008281,1456.594577 1200.490759,1469.427945 1206.514956,1470.129541 1203.125817,1498.675021 1154.071327,1492.895603 1153.422421,1498.387718 1139.530005,1496.749239 1142.689736,1470.074939"/>
    <poly id="1111170229" type="building" color="255,230,230" fill="1" layer="-1.00" shape="730.215272,1880.590455 717.947907,1906.810818 685.512888,1891.761826 689.678436,1882.856354 686.800243,1881.520461 684.545698,1886.325799 648.946291,1869.815240 652.691224,1861.824647 652.820411,1861.881819 655.638875,1855.852961 659.347442,1857.565880 666.111507,1843.116587 686.969251,1852.798888 685.058243,1856.899023 704.726008,1866.022094 703.674892,1868.281601 730.215272,1880.590455"/>
    <poly id="1111170230" type="building" color="255,230,230" fill="1" layer="-1.00" shape="740.996645,1885.791258 746.118971,1874.048353 749.872110,1865.447938 754.887425,1859.648003 758.006759,1860.998220 763.880301,1866.022751 763.289608,1865.770894 775.825919,1876.495902 766.983080,1886.725296 762.715737,1883.064089 764.391071,1879.238085 760.775093,1876.151164 756.945166,1874.492039 751.937884,1885.959215 752.946543,1884.797084 750.686941,1889.979410 740.996645,1885.791258"/>
    <poly id="1111170231" type="building" color="255,230,230" fill="1" layer="-1.00" shape="730.623407,1921.718659 742.809122,1908.594846 748.329250,1913.670112 747.255780,1914.820289 755.059073,1921.999863 758.515185,1918.275219 765.814404,1924.971203 751.245892,1940.680544 730.623407,1921.718659"/>
    <poly id="1111170232" type="building" color="255,230,230" fill="1" layer="-1.00" shape="758.082221,1900.613717 761.408150,1896.210832 771.922016,1904.069775 776.382131,1898.140459 776.703692,1898.388731 779.840772,1894.227321 769.391272,1886.413588 774.947124,1879.057136 794.403290,1893.600727 784.141882,1907.193735 783.333045,1906.595170 777.115609,1914.841112 758.082221,1900.613717"/>
    <poly id="1111170233" type="building" color="255,230,230" fill="1" layer="-1.00" shape="765.485935,1689.797386 766.712998,1698.020544 765.736473,1698.162796 767.202261,1707.975045 753.828206,1709.948360 751.144611,1691.913081 765.485935,1689.797386"/>
    <poly id="1111170234" type="building" color="255,230,230" fill="1" layer="-1.00" shape="716.047299,1744.978311 729.636004,1740.823020 738.614173,1769.910436 709.162817,1778.911589 705.025511,1765.481608 720.878937,1760.635601 716.047299,1744.978311"/>
    <poly id="1111170235" type="building" color="255,230,230" fill="1" layer="-1.00" shape="728.351786,1669.994482 717.187891,1673.283764 715.402103,1667.282318 712.438774,1668.152252 710.101808,1660.324661 701.901238,1662.744026 697.307852,1647.311729 719.635842,1640.722044 728.351786,1669.994482"/>
    <poly id="1111170236" type="building" color="255,230,230" fill="1" layer="-1.00" shape="769.252473,1653.726531 779.584500,1651.568522 779.077552,1649.210627 787.296688,1647.490262 791.190520,1665.952022 772.648816,1669.819424 769.252473,1653.726531"/>
    <poly id="1111170237" type="building" color="255,230,230" fill="1" layer="-1.00" shape="863.941779,1693.305660 818.875418,1690.619835 819.090210,1687.040537 815.250281,1686.822996 816.133180,1672.117960 830.778316,1672.978605 830.681011,1674.707392 852.875639,1676.034700 853.030882,1673.441643 865.088218,1674.156934 863.941779,1693.305660"/>
    <poly id="1111170238" type="building" color="255,230,230" fill="1" layer="-1.00" shape="764.540550,1647.198113 752.862073,1650.092339 750.561717,1640.912211 729.775068,1646.069531 727.501055,1637.000663 759.975500,1628.949230 764.540550,1647.198113"/>
    <poly id="1111170239" type="building" color="255,230,230" fill="1" layer="-1.00" shape="761.301197,1677.143068 744.649537,1680.581005 742.319498,1669.448594 742.794136,1669.355105 741.485513,1663.071663 736.961864,1664.009525 733.506994,1647.427897 740.636896,1645.948058 741.160642,1648.439258 748.541711,1646.918410 750.809888,1657.817102 767.573400,1654.347394 771.700405,1674.120905 762.318123,1676.058680 759.849070,1664.214634 758.657612,1664.464926 761.301197,1677.143068"/>
    <poly id="1111170240" type="building" color="255,230,230" fill="1" layer="-1.00" shape="644.594783,1639.589730 652.900459,1661.348513 626.377669,1671.375952 620.377064,1655.658800 619.509543,1655.979962 617.284996,1650.161233 624.552346,1647.418847 625.870988,1650.863293 640.144660,1645.463788 638.754730,1641.796586 644.594783,1639.589730"/>
    <poly id="125704723" type="leisure" color="207,245,201" fill="1" layer="-2.00" shape="662.530599,2151.079268 662.448797,2143.281709 661.117532,2136.609813 658.617118,2129.911258 655.836356,2124.051833 651.185877,2117.801534 646.171506,2113.087943 641.316792,2108.930993 635.702095,2106.083673 629.243031,2103.912712 622.694391,2102.195265 620.048668,2096.648177 497.984015,2155.266472 518.303185,2196.326754 525.627477,2206.017269 533.092037,2212.837274 540.532784,2216.562781 547.470219,2219.050577 556.232599,2220.409270 564.946851,2219.804352 574.049143,2217.241626 640.398344,2184.887197 646.951248,2180.005997 653.796312,2173.398608 657.850001,2166.609880 660.939919,2159.009819 662.530599,2151.079268"/>
    <poly id="125704723#1" type="sport" color="79,230,125" fill="1" layer="-2.00" shape="662.530599,2151.079268 662.448797,2143.281709 661.117532,2136.609813 658.617118,2129.911258 655.836356,2124.051833 651.185877,2117.801534 646.171506,2113.087943 641.316792,2108.930993 635.702095,2106.083673 629.243031,2103.912712 622.694391,2102.195265 620.048668,2096.648177 497.984015,2155.266472 518.303185,2196.326754 525.627477,2206.017269 533.092037,2212.837274 540.532784,2216.562781 547.470219,2219.050577 556.232599,2220.409270 564.946851,2219.804352 574.049143,2217.241626 640.398344,2184.887197 646.951248,2180.005997 653.796312,2173.398608 657.850001,2166.609880 660.939919,2159.009819 662.530599,2151.079268"/>
    <poly id="1273792624" type="unknown" color="51,128,255" fill="0" layer="-1.00" shape="322.535629,2010.291806 350.960739,2070.079888"/>
    <poly id="1273792636" type="unknown" color="51,128,255" fill="0" layer="-1.00" shape="406.582439,1940.474970 409.260314,1941.519769 413.081436,1941.747992 416.725354,1940.643030 418.945265,1939.130985 421.001231,1936.685178 422.385634,1933.088150"/>
    <poly id="1273792637" type="leisure" color="207,245,201" fill="1" layer="-2.00" shape="399.866751,1887.751329 399.445001,1891.549686 397.458411,1895.061084 394.261552,1897.447375 390.267178,1898.381336 385.677099,1897.344407 382.425892,1894.739361 380.302025,1889.720525 380.748220,1885.478881 383.288533,1881.509046 386.191369,1879.595726 390.378722,1878.808500 393.434018,1879.392518 399.866751,1887.751329"/>
    <poly id="1273792642" type="leisure" color="207,245,201" fill="1" layer="-2.00" shape="406.582439,1940.474970 409.260314,1941.519769 413.081436,1941.747992 416.725354,1940.643030 418.945265,1939.130985 421.001231,1936.685178 422.385634,1933.088150 421.886001,1927.381112 420.262698,1924.509340 417.989328,1922.360887 414.261451,1920.703257 411.016142,1920.449415 407.785413,1921.193892 405.044476,1922.798828 402.660165,1925.506441 401.217435,1929.302322 406.582439,1940.474970"/>
    <poly id="1273792643" type="unknown" color="51,128,255" fill="0" layer="-1.00" shape="348.632613,1997.984418 377.057605,2057.772580"/>
    <poly id="1273792645" type="leisure" color="207,245,201" fill="1" layer="-2.00" shape="540.594983,2144.909326 534.223451,2149.415940 528.370405,2155.415551 524.652216,2162.108980 522.872250,2168.229317 521.784605,2174.636120 522.600848,2180.957344 523.885665,2186.941003 525.946046,2191.837042 528.922212,2196.268381 531.810751,2199.611709 534.337673,2202.229358 537.476930,2204.866245 540.421169,2206.812942 543.934735,2208.523227 547.057520,2209.607259 550.799572,2210.189379 554.654902,2210.628833 557.900258,2210.871639 561.048550,2210.736084 564.039966,2210.531902 567.278713,2209.876310 570.292690,2208.674304 635.552751,2177.259112 639.743901,2174.087639 643.506842,2171.010279 646.386701,2168.032065 649.189706,2163.855079 651.183722,2159.789314 652.328548,2155.368445 652.813751,2150.994244 653.060308,2147.115928 653.092262,2142.624789 652.357638,2138.544873 650.830533,2134.032976 649.472937,2130.732176 647.837949,2128.048740 645.904077,2125.505497 643.656747,2122.802818 641.374784,2120.609832 639.114903,2118.849661 636.714344,2117.198520 634.264283,2115.779617 631.969031,2114.584581 629.068946,2113.503487 626.203177,2112.633566 621.898101,2111.811028 618.298592,2111.674391 613.714945,2111.557927 609.733604,2112.214711 606.097529,2113.430606 602.725855,2115.004910 540.594983,2144.909326"/>
    <poly id="1273792645#1" type="sport" color="79,230,125" fill="1" layer="-2.00" shape="540.594983,2144.909326 534.223451,2149.415940 528.370405,2155.415551 524.652216,2162.108980 522.872250,2168.229317 521.784605,2174.636120 522.600848,2180.957344 523.885665,2186.941003 525.946046,2191.837042 528.922212,2196.268381 531.810751,2199.611709 534.337673,2202.229358 537.476930,2204.866245 540.421169,2206.812942 543.934735,2208.523227 547.057520,2209.607259 550.799572,2210.189379 554.654902,2210.628833 557.900258,2210.871639 561.048550,2210.736084 564.039966,2210.531902 567.278713,2209.876310 570.292690,2208.674304 635.552751,2177.259112 639.743901,2174.087639 643.506842,2171.010279 646.386701,2168.032065 649.189706,2163.855079 651.183722,2159.789314 652.328548,2155.368445 652.813751,2150.994244 653.060308,2147.115928 653.092262,2142.624789 652.357638,2138.544873 650.830533,2134.032976 649.472937,2130.732176 647.837949,2128.048740 645.904077,2125.505497 643.656747,2122.802818 641.374784,2120.609832 639.114903,2118.849661 636.714344,2117.198520 634.264283,2115.779617 631.969031,2114.584581 629.068946,2113.503487 626.203177,2112.633566 621.898101,2111.811028 618.298592,2111.674391 613.714945,2111.557927 609.733604,2112.214711 606.097529,2113.430606 602.725855,2115.004910 540.594983,2144.909326"/>
    <poly id="1273792646" type="landuse" color="194,194,130" fill="1" layer="-3.00" shape="335.524802,1917.051022 367.218265,1983.059821 395.044902,1969.821769 363.360858,1903.812998 335.524802,1917.051022"/>
    <poly id="1273792647" type="unknown" color="51,128,255" fill="0" layer="-1.00" shape="399.866751,1887.751329 399.445001,1891.549686 397.458411,1895.061084 394.261552,1897.447375 390.267178,1898.381336 385.677099,1897.344407 382.425892,1894.739361 380.302025,1889.720525 380.748220,1885.478881 383.288533,1881.509046 386.191369,1879.595726 390.378722,1878.808500 393.434018,1879.392518"/>
    <poly id="1273792648" type="unknown" color="51,128,255" fill="0" layer="-1.00" shape="444.605255,1941.568095 453.729674,1961.097356 456.294536,1964.358721 458.762042,1965.866529 461.507078,1966.745883 464.064893,1967.046054 466.317057,1966.599114"/>
    <poly id="1273792650" type="leisure" color="207,245,201" fill="1" layer="-2.00" shape="476.069245,2061.772399 480.640121,2060.058732 483.791443,2056.906636 485.455154,2052.548101 485.011683,2047.507221 482.605659,2043.471639 478.308373,2040.664113 474.205061,2040.021770 469.398347,2041.321964 465.405174,2044.961934 463.668843,2049.896201 464.435363,2055.074459 467.232043,2059.048687 476.069245,2061.772399"/>
    <poly id="1273792655" type="leisure" color="207,245,201" fill="1" layer="-2.00" shape="483.486725,2016.301098 482.438878,2021.810120 483.654362,2028.125557 488.769244,2038.551885 493.261034,2047.672368 497.906449,2057.105425 500.564817,2059.613908 504.676947,2060.988338 509.317920,2060.983519 513.568115,2059.653762 517.526813,2057.211103 520.965993,2053.353070 522.512755,2049.414415 521.907104,2045.402770 517.966979,2037.376457 512.711892,2027.025879 507.019158,2016.081700 503.128740,2011.993102 498.266531,2009.089332 492.194619,2008.509525 486.391199,2011.471089 483.486725,2016.301098"/>
    <poly id="1273792657" type="landuse" color="194,194,130" fill="1" layer="-3.00" shape="306.538975,2097.271035 332.491991,2151.691833 360.466288,2138.477842 334.522668,2084.057090 306.538975,2097.271035"/>
    <poly id="1273792663" type="landuse" color="194,194,130" fill="1" layer="-3.00" shape="475.836085,2207.051881 503.600163,2265.478695 530.041856,2253.043316 502.287323,2194.605458 475.836085,2207.051881"/>
    <poly id="1273792665" type="unknown" color="51,128,255" fill="0" layer="-1.00" shape="470.698101,1964.505848 472.090009,1963.138070 473.341976,1961.823883 474.443550,1959.953183 475.217226,1957.612332 475.349539,1954.641899 474.406961,1951.535181 465.186091,1931.583187"/>
    <poly id="1273792669" type="unknown" color="51,128,255" fill="0" layer="-1.00" shape="426.759260,2230.443148 453.097854,2286.499722"/>
    <poly id="1273792670" type="building" color="255,230,230" fill="1" layer="-1.00" shape="468.954957,2173.800467 474.632149,2185.908900 487.389802,2179.978891 481.721902,2167.870574 475.380483,2170.813897 468.954957,2173.800467"/>
    <poly id="1273792671" type="landuse" color="194,194,130" fill="1" layer="-3.00" shape="310.313091,1864.070749 333.550730,1912.633060 361.348937,1899.449979 338.120534,1850.898810 310.313091,1864.070749"/>
    <poly id="1273792672" type="unknown" color="51,128,255" fill="0" layer="-1.00" shape="476.069245,2061.772399 480.640121,2060.058732 483.791443,2056.906636 485.455154,2052.548101 485.011683,2047.507221 482.605659,2043.471639 478.308373,2040.664113 474.205061,2040.021770 469.398347,2041.321964 465.405174,2044.961934 463.668843,2049.896201 464.435363,2055.074459 467.232043,2059.048687"/>
    <poly id="1273792673" type="leisure" color="207,245,201" fill="1" layer="-2.00" shape="436.301362,1997.873916 438.921036,1998.407799 443.166820,1998.109347 446.367038,1996.865415 449.367815,1994.565257 451.086594,1992.347871 452.426215,1989.326945 452.931359,1985.540788 452.285604,1981.750422 449.937147,1977.571442 445.046627,1974.001908 441.225377,1973.086073 437.537429,1973.314310 433.824580,1974.717785 431.415531,1976.493479 429.235685,1979.181622 428.277301,1981.453480 427.798257,1982.578320 427.411711,1985.123945 436.301362,1997.873916"/>
    <poly id="1273792674" type="leisure" color="207,245,201" fill="1" layer="-2.00" shape="523.704581,1977.953453 522.109207,1981.359128 519.895607,1983.791726 516.415923,1985.808236 512.637671,1986.545395 508.570573,1985.970062 504.718710,1983.867135 501.895350,1980.502506 500.709728,1977.525637 500.551440,1972.677083 501.948394,1968.836246 504.589337,1965.677368 507.789437,1963.745858 511.773485,1962.889441 515.045734,1963.210217 519.142283,1965.061326 523.704581,1977.953453"/>
    <poly id="1273792677" type="unknown" color="51,128,255" fill="0" layer="-1.00" shape="506.287115,1939.216377 504.875882,1942.036719 502.617499,1944.346733 500.242463,1945.657072 497.290881,1946.349780 493.675255,1946.024443 490.207689,1944.336973 487.973229,1942.055937 486.767849,1939.866216 486.059049,1936.629522 486.670272,1932.545340 488.456547,1929.441635 490.720082,1927.442214 494.331907,1925.959784 497.832794,1925.839984 501.344713,1926.984623 504.420584,1929.509748"/>
    <poly id="1273792680" type="building" color="255,230,230" fill="1" layer="-1.00" shape="378.736829,2230.381653 373.227766,2218.885478 378.916130,2216.188489 385.024898,2213.286375 390.543231,2224.782680 378.736829,2230.381653"/>
    <poly id="1273792687" type="landuse" color="194,194,130" fill="1" layer="-3.00" shape="401.187113,2052.426067 427.139740,2106.847128 455.114306,2093.633406 429.171075,2039.212390 401.187113,2052.426067"/>
    <poly id="1273792689" type="unknown" color="51,128,255" fill="0" layer="-1.00" shape="453.252350,2217.631173 479.590832,2273.687822"/>
    <poly id="1273792690" type="unknown" color="51,128,255" fill="0" layer="-1.00" shape="436.965565,2037.985159 464.911586,2098.144316"/>
    <poly id="1273792693" type="unknown" color="51,128,255" fill="0" layer="-1.00" shape="438.475136,2186.271061 450.166740,2210.259480"/>
    <poly id="1273792694" type="building" color="255,230,230" fill="1" layer="-1.00" shape="465.658517,2088.738606 472.271175,2085.643617 479.444331,2082.278829 473.305141,2069.310303 459.519313,2075.770089 465.658517,2088.738606"/>
    <poly id="1273792695" type="unknown" color="51,128,255" fill="0" layer="-1.00" shape="523.704581,1977.953453 522.109207,1981.359128 519.895607,1983.791726 516.415923,1985.808236 512.637671,1986.545395 508.570573,1985.970062 504.718710,1983.867135 501.895350,1980.502506 500.709728,1977.525637 500.551440,1972.677083 501.948394,1968.836246 504.589337,1965.677368 507.789437,1963.745858 511.773485,1962.889441 515.045734,1963.210217 519.142283,1965.061326"/>
    <poly id="1273792696" type="unknown" color="51,128,255" fill="0" layer="-1.00" shape="371.984046,1902.397094 401.240603,1963.183394"/>
    <poly id="1273792699" type="unknown" color="51,128,255" fill="0" layer="-1.00" shape="539.997856,2030.715901 537.105775,2033.217102 533.439480,2034.610068 528.920611,2034.505597 524.760608,2032.542736 521.644876,2028.830413 520.434261,2023.546431 521.809434,2018.551918 524.947532,2015.000409 529.912043,2013.003653 534.936614,2013.469739 539.793943,2016.739442"/>
    <poly id="1273792705" type="leisure" color="207,245,201" fill="1" layer="-2.00" shape="506.287115,1939.216377 504.875882,1942.036719 502.617499,1944.346733 500.242463,1945.657072 497.290881,1946.349780 493.675255,1946.024443 490.207689,1944.336973 487.973229,1942.055937 486.767849,1939.866216 486.059049,1936.629522 486.670272,1932.545340 488.456547,1929.441635 490.720082,1927.442214 494.331907,1925.959784 497.832794,1925.839984 501.344713,1926.984623 504.420584,1929.509748 506.287115,1939.216377"/>
    <poly id="1273792709" type="unknown" color="51,128,255" fill="0" layer="-1.00" shape="315.450822,1928.018876 345.681337,1991.668128"/>
    <poly id="1273792715" type="unknown" color="51,128,255" fill="0" layer="-1.00" shape="247.391172,1805.266698 254.164818,1803.338168 259.779895,1801.982050 265.621097,1801.072547 272.292975,1800.517871 279.078876,1800.463775 286.629311,1800.852354 294.058813,1801.960200 302.243430,1804.919060 308.868048,1807.923756 316.137880,1811.968418 323.056972,1817.261627 330.146792,1823.677226 334.772726,1829.006534 338.457505,1833.913005 342.768496,1841.988519"/>
    <poly id="1273792717" type="unknown" color="51,128,255" fill="0" layer="-1.00" shape="435.348650,1901.253926 433.573888,1902.794065 432.174756,1904.705175 431.439535,1906.946728 431.149180,1909.238554 431.209561,1911.679215 431.741174,1914.281404 441.551054,1935.316947"/>
    <poly id="1273792721" type="unknown" color="51,128,255" fill="0" layer="-1.00" shape="406.209190,1973.452464 433.182835,2029.983156"/>
    <poly id="1273792725" type="landuse" color="194,194,130" fill="1" layer="-3.00" shape="369.708906,1987.018862 399.430964,2048.376963 427.305635,2035.006564 397.592986,1973.648498 369.708906,1987.018862"/>
    <poly id="1273792727" type="leisure" color="207,245,201" fill="1" layer="-2.00" shape="444.605255,1941.568095 453.729674,1961.097356 456.294536,1964.358721 458.762042,1965.866529 461.507078,1966.745883 464.064893,1967.046054 466.317057,1966.599114 470.698101,1964.505848 472.090009,1963.138070 473.341976,1961.823883 474.443550,1959.953183 475.217226,1957.612332 475.349539,1954.641899 474.406961,1951.535181 465.186091,1931.583187 462.131900,1925.332032 452.167524,1904.749114 450.851061,1902.535741 449.312896,1900.940477 447.564373,1899.808207 446.003514,1899.221856 444.208878,1898.765481 442.251318,1898.695099 440.037294,1899.064921 435.348650,1901.253926 433.573888,1902.794065 432.174756,1904.705175 431.439535,1906.946728 431.149180,1909.238554 431.209561,1911.679215 431.741174,1914.281404 441.551054,1935.316947 444.605255,1941.568095"/>
    <poly id="1273792728" type="unknown" color="51,128,255" fill="0" layer="-1.00" shape="445.046627,1974.001908 441.225377,1973.086073 437.537429,1973.314310 433.824580,1974.717785 431.415531,1976.493479 429.235685,1979.181622 428.277301,1981.453480 427.411711,1985.123945"/>
    <poly id="1273792729" type="unknown" color="51,128,255" fill="0" layer="-1.00" shape="421.886001,1927.381112 420.262698,1924.509340 417.989328,1922.360887 414.261451,1920.703257 411.016142,1920.449415 407.785413,1921.193892 405.044476,1922.798828 402.660165,1925.506441 401.217435,1929.302322"/>
    <poly id="1273792733" type="unknown" color="51,128,255" fill="0" layer="-1.00" shape="346.797679,1849.616682 367.440216,1892.987639"/>
    <poly id="1273792734" type="unknown" color="51,128,255" fill="0" layer="-1.00" shape="436.301362,1997.873916 438.921036,1998.407799 443.166820,1998.109347 446.367038,1996.865415 449.367815,1994.565257 451.086594,1992.347871 452.426215,1989.326945 452.931359,1985.540788 452.285604,1981.750422 449.937147,1977.571442"/>
    <poly id="1273792735" type="unknown" color="51,128,255" fill="0" layer="-1.00" shape="411.484103,2198.832475 423.175756,2222.820861"/>
    <poly id="1273792738" type="leisure" color="207,245,201" fill="1" layer="-2.00" shape="539.997856,2030.715901 537.105775,2033.217102 533.439480,2034.610068 528.920611,2034.505597 524.760608,2032.542736 521.644876,2028.830413 520.434261,2023.546431 521.809434,2018.551918 524.947532,2015.000409 529.912043,2013.003653 534.936614,2013.469739 539.793943,2016.739442 539.997856,2030.715901"/>
    <poly id="1273792742" type="unknown" color="51,128,255" fill="0" layer="-1.00" shape="462.131900,1925.332032 452.167524,1904.749114 450.851061,1902.535741 449.312896,1900.940477 447.564373,1899.808207 446.003514,1899.221856 444.208878,1898.765481 442.251318,1898.695099 440.037294,1899.064921"/>
    <poly id="1273792748" type="unknown" color="51,128,255" fill="0" layer="-1.00" shape="379.949475,2063.666663 404.813916,2116.165677"/>
    <poly id="1273792751" type="unknown" color="51,128,255" fill="0" layer="-1.00" shape="354.030564,2076.553020 378.895106,2129.051965"/>
    <poly id="1329515901" type="building" color="255,230,230" fill="1" layer="-1.00" shape="1252.971625,1813.796048 1272.047178,1804.713181 1269.921166,1795.723771 1249.105911,1794.691194 1247.271970,1805.501894 1251.406810,1805.180129 1251.918549,1808.558427 1249.662745,1809.271305 1252.971625,1813.796048"/>
    <poly id="1329515902" type="building" color="255,230,230" fill="1" layer="-1.00" shape="1252.971625,1813.796048 1239.734958,1821.459850 1232.972929,1807.927962 1248.184378,1807.377269 1249.662745,1809.271305 1252.971625,1813.796048"/>
    <poly id="1329515903" type="building" color="255,230,230" fill="1" layer="-1.00" shape="1203.573532,1803.985927 1209.630466,1800.140947 1210.292117,1792.308948 1198.122504,1790.283060 1195.416377,1796.213463 1203.573532,1803.985927"/>
    <poly id="1329515904" type="building" color="255,230,230" fill="1" layer="-1.00" shape="1219.285944,1793.737869 1210.292117,1792.308948 1209.630466,1800.140947 1218.051418,1801.373671 1219.285944,1793.737869"/>
    <poly id="1329515905" type="building" color="255,230,230" fill="1" layer="-1.00" shape="1232.959637,1795.040849 1219.285944,1793.737869 1218.051418,1801.373671 1218.409378,1803.064184 1225.541802,1802.782493 1226.052896,1806.903832 1232.972929,1807.927962 1232.969594,1804.013040 1232.959637,1795.040849"/>
    <poly id="1329515906" type="building" color="255,230,230" fill="1" layer="-1.00" shape="1249.105911,1794.691194 1232.959637,1795.040849 1232.969594,1804.013040 1247.271970,1805.501894 1249.105911,1794.691194"/>
    <poly id="1329515907" type="building" color="255,230,230" fill="1" layer="-1.00" shape="904.040123,1972.384172 918.311725,1985.206415 921.797849,1985.496914 931.621360,1958.124059 912.279633,1952.420664 904.040123,1972.384172"/>
    <poly id="1342780370" type="landuse" color="194,194,130" fill="1" layer="-3.00" shape="965.636761,1869.323304 988.450658,1789.456077 992.753561,1786.973838 1094.862558,1816.418046 1056.592182,1896.366960 1051.343651,1898.071310 965.636761,1869.323304"/>
    <poly id="1349865009" type="amenity" color="237,199,199" fill="1" layer="-1.00" shape="913.880068,1567.353907 936.631622,1571.483579 1004.469885,1583.767551 1014.887525,1585.636708 1010.182243,1626.596881 1007.748621,1645.495520 996.804968,1644.096230 965.389969,1639.518078 953.963269,1638.145661 918.044669,1632.997417 910.082055,1570.253260 913.880068,1567.353907"/>
    <poly id="1349865010" type="building" color="255,230,230" fill="1" layer="-1.00" shape="931.048811,1581.534527 932.751379,1572.197040 936.381261,1572.855434 936.631622,1571.483579 1004.469885,1583.767551 1003.478276,1589.210737 999.135273,1588.431895 998.173730,1593.709128 931.048811,1581.534527"/>
    <poly id="1349865011" type="building" color="255,230,230" fill="1" layer="-1.00" shape="956.100908,1620.551717 953.963269,1638.145661 965.389969,1639.518078 967.527628,1621.924136 956.100908,1620.551717"/>
    <poly id="1349865012" type="building" color="255,230,230" fill="1" layer="-1.00" shape="1007.748621,1645.495520 996.804968,1644.096230 999.247849,1625.197711 1010.182243,1626.596881 1007.748621,1645.495520"/>
    <poly id="1363094349" type="unknown" color="51,128,255" fill="1" layer="-1.00" shape="931.105063,2227.056838 933.946443,2228.359048 943.786563,2205.988151 993.624957,2227.170459 1030.843613,2265.463186 1046.037765,2304.371277 942.867017,2341.654600 941.895610,2338.636164 940.349248,2336.275473 938.550508,2334.743187 934.810277,2331.942878 931.042268,2330.528487 927.401323,2330.025197 923.847110,2329.977769 919.992643,2330.869011 898.954537,2274.970467 900.193361,2274.643195 897.196698,2266.196771 895.824995,2266.744076 895.097319,2264.239052 917.527764,2257.529249 918.068790,2255.240776 931.105063,2227.056838"/>
    <poly id="1363094350" type="unknown" color="51,128,255" fill="0" layer="-1.00" shape="895.097319,2264.239052 882.347902,2229.877591 881.639557,2226.618686 881.856701,2223.560661 882.991423,2219.904909 902.616169,2194.614668 905.278926,2192.609578 909.638523,2192.124318 914.448070,2192.698642 919.027308,2194.534189"/>
    <poly id="136991866" type="building" color="255,230,230" fill="1" layer="-1.00" shape="1210.072740,2176.596270 1192.407589,2201.734678 1209.574497,2213.853053 1228.394388,2191.901950 1210.072740,2176.596270"/>
    <poly id="1370374650" type="leisure" color="207,245,201" fill="1" layer="-2.00" shape="550.466722,2258.228038 591.422445,2239.010156 596.779163,2235.432748 635.254635,2217.080347 640.529002,2214.810519 637.601547,2208.816061 694.499153,2182.269467 671.921099,2135.245399 664.316472,2119.429201 644.141973,2077.294764 495.496599,2148.978478 549.129799,2258.953300 550.466722,2258.228038"/>
    <poly id="1370374651" type="building" color="255,230,230" fill="1" layer="-1.00" shape="545.772191,2237.848188 536.958459,2218.722195 532.728205,2220.651080 541.551222,2239.777192 545.772191,2237.848188"/>
    <poly id="1370374652" type="building" color="255,230,230" fill="1" layer="-1.00" shape="590.519532,2237.112791 596.255237,2234.350017 592.244856,2226.034383 586.529183,2228.686523 590.519532,2237.112791"/>
    <poly id="1370374653" type="building" color="255,230,230" fill="1" layer="-1.00" shape="659.617859,2121.673413 664.316472,2119.429201 671.921099,2135.245399 667.213211,2137.489484 659.617859,2121.673413"/>
    <poly id="1370374654" type="building" color="255,230,230" fill="1" layer="-1.00" shape="697.830574,2173.264167 705.768265,2169.643563 708.546323,2175.702595 700.618064,2179.312231 697.830574,2173.264167"/>
    <poly id="1371385736" type="unknown" color="51,128,255" fill="0" layer="-1.00" shape="1237.748963,1533.395913 1212.852059,1527.961458"/>