<?xml version="1.0" encoding="UTF-8"?>

<!-- generated on 2025-06-13 03:43:02 by Eclipse SUMO sumo Version 1.23.1
-->

<sumoConfiguration xmlns:xsi="http://www.w3.org/2001/XMLSchema-instance" xsi:noNamespaceSchemaLocation="http://sumo.dlr.de/xsd/sumoConfiguration.xsd">

    <input>
        <net-file value="goodmap.net.xml"/>
        <route-files value="routes_finales_alternatives.rou.xml"/>
        <additional-files value="map.poly.xml,detecteurs.add.xml"/>
    </input>

    <time>
        <begin value="0"/>
        <end value="10000"/>
    </time>

    <processing>
        <ignore-route-errors value="true"/>
    </processing>

</sumoConfiguration>
