<?xml version="1.0" encoding="UTF-8"?>

<!-- generated on 2025-06-13 03:27:58 by Eclipse SUMO duarouter Version 1.23.1
<duarouterConfiguration xmlns:xsi="http://www.w3.org/2001/XMLSchema-instance" xsi:noNamespaceSchemaLocation="http://sumo.dlr.de/xsd/duarouterConfiguration.xsd">

    <input>
        <net-file value="goodmap.net.xml"/>
        <route-files value="trips_bordures.trips.xml"/>
    </input>

    <output>
        <output-file value="routes_finales_alternatives.rou.xml"/>
        <alternatives-output value="5"/>
    </output>

    <processing>
        <weight-period value="60"/>
    </processing>

</duarouterConfiguration>
-->

<routes xmlns:xsi="http://www.w3.org/2001/XMLSchema-instance" xsi:noNamespaceSchemaLocation="http://sumo.dlr.de/xsd/routes_file.xsd">
    <vehicle id="0" depart="0.00">
        <route edges="423702947#0 423702947#1 589340824#0 589340824#1 589340824#2 315894489#0 315894489#1 315894489#2 315894489#3 315894489#4 584930687#0 97668334#0 34881423 34881402#1 -1371385742 -1371385743"/>
    </vehicle>
    <vehicle id="1" depart="2.00">
        <route edges="174059153#2 29892888#3 315929406#0 315929406#1 315929406#2 315929406#3 1318066358#0 1318066358#1 1318066358#2"/>
    </vehicle>
    <vehicle id="2" depart="4.00">
        <route edges="519657941#2 519657941#3 589340826 248378000#0 248378000#1 248378000#2 248378000#3 248378000#4 248378000#5 248378000#6 248378000#7 248378000#8 248378000#9 526279652#0 526279652#1 526279652#2 4406538#14 4406538#15 4406538#16"/>
    </vehicle>
    <vehicle id="3" depart="6.00">
        <route edges="590292161#0 590292161#1 29892818#2 215666794 215666784#1 215666784#2 215666784#3 215666784#4 248378000#2 248378000#3 248378000#4 248378000#5 248378000#6 248378000#7 248378000#8 248378000#9 526279652#0 526279652#1 526279652#2 526279652#3 1317914966#0 1317914966#1 1317914966#2 -315929404#4 -315929404#3"/>
    </vehicle>
    <vehicle id="4" depart="8.00">
        <route edges="215666786#8 215666786#9 215666786#10 215666786#11 215666786#12 853735143#0 853735143#1 853735143#2 853305056 1371385740 1371385739 1371385738 1371385737 422517487 4071848 422517479#0 422517479#1 583985890#0 -1372244321 -1372244322"/>
    </vehicle>
    <vehicle id="5" depart="10.00">
        <route edges="1318066358#0 1318066358#1 1318066358#2 420659193#4 420659193#5 420659193#6 590294822#0 590294822#1 590294821 1055764967#0 1055764967#1 1055764966 551708627#0 551708627#1 590292161#0 590292161#1 29892818#2 29892818#3"/>
    </vehicle>
    <vehicle id="6" depart="12.00">
        <route edges="-1371385743 -584930688 584930687#0 584930687#1 584930687#2 584930687#3 584930687#4 248378000#0 248378000#1 248378000#2 248378000#3 248378000#4 248378000#5 248378000#6 248378000#7 248378000#8 248378000#9 526279652#0 526279652#1 526279652#2 526279652#3 1106620645#0 1106620645#1 1106620645#2 1106620645#3"/>
    </vehicle>
    <vehicle id="7" depart="14.00">
        <route edges="4406498#3 4406545#2 174059153#0 174059153#1 174059153#2 29892888#3 315929406#0"/>
    </vehicle>
    <vehicle id="8" depart="16.00">
        <route edges="1318066358#1 1318066358#2 420659193#4 420659193#5 420659193#6 590294822#0 590294822#1 590294821 1055764967#0 1055764967#1 1055764966 551708627#0 551708627#1 551708627#2 551708627#3 551708627#4 589340825 589340824#0 589340824#1 589340824#2 315894489#0 315894489#1 315894489#2 315894489#3 315894489#4 584930688 1371385743 1371385742 1371385741#0 1371385741#1 1371385741#2 853735143#0 853735143#1 853735143#2 853305056 1371385740 1371385739 1371385738 1371385737 422517487 4071848 422517479#0 422517479#1 583985890#0 583985890#1 422708236#0 4071555#0 4071555#1"/>
    </vehicle>
    <vehicle id="9" depart="18.00">
        <route edges="579482353#2 579482353#3 174059153#2 29892888#3 -1317914966#2 -1317914966#1"/>
    </vehicle>
    <vehicle id="10" depart="20.00">
        <route edges="579482353#0 579482353#1 579482353#2 4406498#1 4406498#2 4406498#3 4406545#2 4406545#3"/>
    </vehicle>
    <vehicle id="11" depart="22.00">
        <route edges="214262735#4 214262735#5 526279652#1 526279652#2 526279652#3 1106620645#0 4406582#0 4406582#1 589097326#0 589097326#1 4406507#3 -8101428"/>
    </vehicle>
    <vehicle id="12" depart="24.00">
        <route edges="97668330#0 4071555#8 1317914966#0 1317914966#1 1317914966#2 315929406#0 315929406#1 214262735#3"/>
    </vehicle>
    <vehicle id="13" depart="26.00">
        <route edges="-34881334#1 -34881334#0 34881334#0 34881334#1 34881334#2 34881334#3 -34881334#3"/>
    </vehicle>
    <vehicle id="14" depart="28.00">
        <route edges="584930687#3 584930687#4 248378000#0 248378000#1 248378000#2 248378000#3 248378000#4 248378000#5 248378000#6 248378000#7 248378000#8 248378000#9 526279652#0 526279652#1 526279652#2 526279652#3 -4071555#8 4071555#8"/>
    </vehicle>
    <vehicle id="15" depart="30.00">
        <route edges="579482353#1 4406626#3 315929404#4 -1317914966#2 -1317914966#1 -1317914966#0 1106620645#0 4406582#0 4406582#1 4406582#2 4406582#3 4406582#4 174059192#2 4406723"/>
    </vehicle>
    <vehicle id="16" depart="32.00">
        <route edges="315929404#0 315929404#1 214262735#0 214262735#1 214262735#2 214262735#3 214262735#4 214262735#5 214262735#6 214262735#7 214262735#8 214262735#9 215666786#2 215666786#3 215666786#4 215666786#5 -579487441 28944192#0 215666789 97668333#1 97668333#2"/>
    </vehicle>
    <vehicle id="17" depart="34.00">
        <route edges="215666286#2 589340825 589340824#0 589340824#1 589340824#2 589340826 248378000#0 248378000#1 248378000#2 248378000#3 248378000#4 248378000#5 248378000#6 248378000#7 248378000#8 248378000#9 526279652#0 526279652#1 579409139#1 579409139#2 579409139#3 315929406#1 315929406#2 315929406#3"/>
    </vehicle>
    <vehicle id="18" depart="36.00">
        <route edges="579499692#0 579499692#1 583033158#0 583033158#1 4406538#3 28944194#1 248378000#3 248378000#4 248378000#5 248378000#6 248378000#7 248378000#8 248378000#9 1111170241#0 1111170241#1 1111170241#2 1318066358#0 1318066358#1 1318066358#2 420659193#4"/>
    </vehicle>
    <vehicle id="19" depart="38.00">
        <route edges="4406545#6 29892888#0 29892888#1 29892888#2 29892888#3 315929406#0 315929406#1 214262735#3 214262735#4 214262735#5 214262735#6 214262735#7 214262735#8 214262735#9 -215666786#1 -215666786#0"/>
    </vehicle>
    <vehicle id="20" depart="40.00">
        <route edges="1318066359#2 526279652#0 526279652#1 526279652#2 526279652#3 1317914966#0 1317914966#1 1317914966#2 -315929404#4 -315929404#3 -315929404#2 -315929404#1 174059223#0 174059223#1"/>
    </vehicle>
    <vehicle id="21" depart="42.00">
        <route edges="-28944194#1 -28944194#0 28944196#1 97668333#0 97668333#1 97668333#2 215666786#8 215666786#9 215666786#10 215666786#11 215666786#12 853735143#0 853735143#1 853735143#2 853305056 1371385740 1371385739 1371385738"/>
    </vehicle>
    <vehicle id="22" depart="44.00">
        <route edges="422708233#1 422708233#2 214262742 214262735#1 214262735#2 214262735#3 214262735#4 214262735#5 214262735#6 8101113#0 8101113#1 8101113#2 214262745#0 214262745#1"/>
    </vehicle>
    <vehicle id="23" depart="46.00">
        <route edges="174059147#3 174059147#4 29892888#2 29892888#3 -1317914966#2 -1317914966#1 -1317914966#0 -4071555#8 -4071555#7 -4071555#6 -4071555#5 -4071555#4 8101427#5"/>
    </vehicle>
    <vehicle id="24" depart="48.00">
        <route edges="-97669073#0 1055764965 588802765#0 588802765#1 588802765#2 248378000#4 248378000#5 248378000#6 248378000#7 248378000#8 248378000#9 526279652#0 526279652#1 526279652#2 526279652#3 1106620645#0 4406582#0 4406582#1 4406582#2 4406582#3 4406582#4 174059192#2 4406723"/>
    </vehicle>
    <vehicle id="25" depart="50.00">
        <route edges="-853735143#2 -853735143#1 -853735143#0 -1371385741#2 -1371385741#1 -1371385741#0 -1371385742 -1371385743 -584930688 584930687#0 584930687#1 584930687#2 584930687#3 584930687#4 215666286#0 215666286#1 215666286#2 29892818#0 29892818#1 29892818#2 29892818#3 -97669073#1 215666784#0"/>
    </vehicle>
    <vehicle id="26" depart="52.00">
        <route edges="34881334#2 34881334#3 -215666786#12 -215666786#11 -215666786#10 -215666786#9 579499692#0 579499692#1 97668334#2 97668334#3 28944192#0 28944192#1 731047775 4406538#6"/>
    </vehicle>
    <vehicle id="27" depart="54.00">
        <route edges="584930687#0 584930687#1 584930687#2 584930687#3 584930687#4 248378000#0 248378000#1 248378000#2 248378000#3 248378000#4 248378000#5 248378000#6 248378000#7 248378000#8 248378000#9 526279652#0 526279652#1 526279652#2 4406538#14 4406538#15 4406538#16 4406498#0 4406498#1 579495640 570654049#0"/>
    </vehicle>
    <vehicle id="28" depart="56.00">
        <route edges="1318066359#2 526279652#0 526279652#1 526279652#2 526279652#3 -4071555#8 -4071555#7 -4071555#6 -4071555#5 -4071555#4 -4071555#3 -4071555#2 -4071555#1 -4071555#0 422708236#1 422517487 4071848 422517479#0 422517479#1 583985890#0 -1372244321 -1372244322 -1372244323"/>
    </vehicle>
    <vehicle id="29" depart="58.00">
        <route edges="1317914963 -215666786#0 526279652#0 526279652#1 526279652#2 526279652#3 -4071555#8 -4071555#7 -4071555#6 -4071555#5 8101428"/>
    </vehicle>
    <vehicle id="30" depart="60.00">
        <route edges="589340823#2 -590294839#1 -590294839#0 -97669073#1 215666784#0 215666784#1 551708627#1 551708627#2 551708627#3 551708627#4 589340825 589340824#0 589340824#1 589340824#2 315894489#0 315894489#1 315894489#2 315894489#3 315894489#4 584930688 1371385743 1371385742 1371385741#0 1371385741#1 1371385741#2 853735143#0 853735143#1 853735143#2 853305056 1371385740 203937531"/>
    </vehicle>
    <vehicle id="31" depart="62.00">
        <route edges="4406507#1 4406507#2 4406507#3 -8101428 -4071555#4 8101427#5 174115192#0 215666785#3"/>
    </vehicle>
    <vehicle id="32" depart="64.00">
        <route edges="8101113#1 8101113#2 214262745#0 214262745#1 215666786#5 -579487441 28944192#0 28944192#1 28944196#0 28944194#0 28944194#1 248378000#3"/>
    </vehicle>
    <vehicle id="33" depart="66.00">
        <route edges="174059147#2 174059147#3 174059147#4 29892888#2 29892888#3 315929406#0 315929406#1 315929406#2 315929406#3 1318066358#0 1318066358#1 1318066358#2 420659193#4 420659193#5 420659193#6 590294822#0 590294822#1 590294821 1055764967#0 1055764967#1 1055764966 551708627#0 551708627#1 551708627#2 551708627#3 551708627#4 589340825 589340824#0 589340824#1 589340824#2 315894489#0 315894489#1 315894489#2 315894489#3 315894489#4 584930688 1371385743"/>
    </vehicle>
    <vehicle id="34" depart="68.00">
        <route edges="34881402#0 215666791 215666785#0 215666785#1 215666785#2 215666785#3 4071555#2 4071555#3 4071555#4 4071555#5 4071555#6 97670022 -589097326#0 4406582#2 174059147#0 174059147#1"/>
    </vehicle>
    <vehicle id="35" depart="70.00">
        <route edges="215666785#5 575598853#0 579409140 4071555#3 4071555#4 4071555#5 4071555#6 4071555#7 4071555#8 1317914966#0 1317914966#1 1317914966#2 315929406#0 315929406#1 315929406#2 315929406#3 1318066358#0"/>
    </vehicle>
    <vehicle id="36" depart="72.00">
        <route edges="-34881334#0 34881334#0 34881334#1 34881334#2 34881334#3 -215666786#12 -215666786#11 -215666786#10 -215666786#9 -215666786#8 -215666786#7 -215666786#6 -215666786#5 -215666786#4 -215666786#3 -215666786#2 -215666786#1"/>
    </vehicle>
    <vehicle id="37" depart="74.00">
        <route edges="-4071555#1 -4071555#0 422708236#1 422517487 422517464 -421572462#2 -421572462#1 421572462#1 421572462#2"/>
    </vehicle>
    <vehicle id="38" depart="76.00">
        <route edges="579409139#0 579409139#1 579409139#2 579409139#3 315929406#1 214262735#3 214262735#4 214262735#5 214262735#6 214262735#7 214262735#8 214262735#9 215666786#2 215666786#3 215666786#4 215666786#5 215666786#6 215666786#7 215666786#8"/>
    </vehicle>
    <vehicle id="39" depart="78.00">
        <route edges="-215666786#7 -215666786#6 -215666786#5 -215666786#4 -215666786#3 -215666786#2 214262735#10 214262735#11 214262735#12 214262735#13 579499691#0 579499691#1 579499691#2 579499691#3 588802766 97669073#0 215666784#0 215666784#1"/>
    </vehicle>
    <vehicle id="40" depart="80.00">
        <route edges="97668333#1 97668334#3 28944192#0 28944192#1 28944196#0 28944194#0 28944194#1 248378000#3 588802765#3"/>
    </vehicle>
    <vehicle id="41" depart="82.00">
        <route edges="-1371385738 -1371385739 -1371385740 -853305056 174115314#0 215666785#2 215666785#3 4071555#2 4071555#3 4071555#4 8101428 174059192#0 174059192#1 4406582#5"/>
    </vehicle>
    <vehicle id="42" depart="84.00">
        <route edges="4406538#4 4406538#5 4406538#6 4406538#7 4406538#8 4406538#9 4406538#10 4406538#11 4406538#12 4406538#13 4406538#14 4406538#15 4406538#16 -315929404#4 -315929404#3 -315929404#2 -315929404#1 -315929404#0 -1055762374 1055762374 315929404#0"/>
    </vehicle>
    <vehicle id="43" depart="86.00">
        <route edges="-4071555#2 -4071555#1 -4071555#0 422708236#1 -1371385737 -1371385738 -1371385739 -1371385740 -853305056 -853735143#2 -853735143#1 -853735143#0 -1371385741#2 -1371385741#1 -1371385741#0 -1371385742 -1371385743 -584930688 584930687#0 584930687#1 584930687#2 584930687#3 584930687#4 215666286#0 215666286#1 215666286#2 29892818#0 29892818#1 29892818#2 29892818#3 215666792#0 215666792#1"/>
    </vehicle>
    <vehicle id="44" depart="88.00">
        <route edges="248378000#1 248378000#2 248378000#3 248378000#4 579499691#1 579499691#2 579499691#3 1055764966 551708627#0 551708627#1 551708627#2 551708627#3 551708627#4 589340825 589340824#0 589340824#1 589340824#2 315894489#0 315894489#1 315894489#2 315894489#3 315894489#4 584930688 97667264"/>
    </vehicle>
    <vehicle id="45" depart="90.00">
        <route edges="589340823#2 -590294839#1 -590294839#0 -97669073#1 -97669073#0 1055764965 588802765#0 588802765#1 588802765#2 248378000#4 248378000#5 248378000#6 248378000#7 248378000#8 248378000#9 526279652#0 526279652#1 526279652#2 526279652#3 1106620645#0 4406582#0 579499693 174059147#1"/>
    </vehicle>
    <vehicle id="46" depart="92.00">
        <route edges="29892818#0 29892818#1 29892818#2 215666794 215666784#1 215666784#2 215666784#3 215666784#4 248378000#2 248378000#3 248378000#4 579499691#1 579499691#2 579499691#3 1055764966"/>
    </vehicle>
    <vehicle id="47" depart="94.00">
        <route edges="8101113#0 4406538#10 4406538#11 4406538#12 4406538#13 526279652#3 1106620645#0 1106620645#1 174059147#2 174059147#3 174059147#4 -589340829 174059135#0 174059135#1 4406545#4 589326111"/>
    </vehicle>
    <vehicle id="48" depart="96.00">
        <route edges="420659193#0 420659193#0-AddedOffRampEdge 420659193#1 420659193#2 420659193#3 420659193#4 420659193#5 420659193#6 590294822#0 590294822#1 590294821 1055764967#0 1055764967#1 1055764966 551708627#0 215666784#2 215666784#3 215666784#4 248378000#2 -28944194#1 4406538#4 4406538#5 -731047775"/>
    </vehicle>
    <vehicle id="49" depart="98.00">
        <route edges="545223629#5 545223629#6 1372244321 583985890#1 422708236#0 4071555#0 4071555#1 4071555#2 4071555#3 4071555#4 4071555#5 4071555#6 4071555#7 4071555#8 1317914966#0 1317914966#1 1317914966#2 -315929404#4 -315929404#3 -315929404#2 315929404#2"/>
    </vehicle>
    <vehicle id="50" depart="100.00">
        <route edges="570654049#2 29892888#1 29892888#2 29892888#3 315929406#0 315929406#1 315929406#2 315929406#3 1318066358#0 1318066358#1 1318066358#2 420659193#4 420659193#5 420659193#6 590294822#0 590294822#1 590294821 1055764967#0 1055764967#1 1055764966 551708627#0 551708627#1 551708627#2 551708627#3 551708627#4 589340825 589340824#0 589340824#1 589340824#2 315894489#0 315894489#1 315894489#2"/>
    </vehicle>
    <vehicle id="51" depart="102.00">
        <route edges="-1055762374 1055762374 315929404#0 315929404#1 214262735#0"/>
    </vehicle>
    <vehicle id="52" depart="104.00">
        <route edges="589340824#0 589340824#1 589340824#2 315894489#0 315894489#1 315894489#2 315894489#3 315894489#4 584930687#0 97668334#0 97668334#1 97668334#2 97668333#2 215666786#8 579499692#0 579499692#1"/>
    </vehicle>
    <vehicle id="53" depart="106.00">
        <route edges="174115314#1 215667737#0 8101427#7 8101427#8 -215666786#6 -215666786#5 -215666786#4"/>
    </vehicle>
    <vehicle id="54" depart="108.00">
        <route edges="589340824#0 589340824#1 589340824#2 315894489#0 315894489#1 315894489#2 315894489#3 315894489#4 584930688 1371385743 1371385742 1371385741#0 1371385741#1 1371385741#2 853735143#0"/>
    </vehicle>
    <vehicle id="55" depart="110.00">
        <route edges="-315929404#2 214262735#0 214262735#1 214262735#2 214262735#3 214262735#4 214262735#5 214262735#6 214262735#7 214262735#8 214262735#9 215666786#2 215666786#3 215666786#4 215666786#5 -579487441 28944192#0 28944192#1 28944196#0"/>
    </vehicle>
    <vehicle id="56" depart="112.00">
        <route edges="-215666792#0 -97669073#1 -97669073#0 1055764965 588802765#0 588802765#1 588802765#2 248378000#4 248378000#5 248378000#6 248378000#7 248378000#8 248378000#9 526279652#0 526279652#1 526279652#2 526279652#3 1106620645#0 4406582#0 4406582#1 4406582#2 4406582#3 545223629#0 545223629#1 545223629#2 545223629#3 545223629#4"/>
    </vehicle>
    <vehicle id="57" depart="114.00">
        <route edges="551708627#0 551708627#1 551708627#2 551708627#3 551708627#4 589340825 589340824#0 589340824#1 589340824#2 315894489#0 315894489#1 315894489#2 315894489#3 315894489#4 584930688 1371385743 1371385742 1371385741#0 1371385741#1 1371385741#2 853735143#0 853735143#1 853735143#2 853305056 1371385740 1371385739 1371385738 1371385737 422517487 422517464 -421572462#2 -421572462#1"/>
    </vehicle>
    <vehicle id="58" depart="116.00">
        <route edges="28944192#1 731047775 4406538#6 -215666786#3 -215666786#2 -215666786#1 -215666786#0 526279652#0 526279652#1 579409139#1 579409139#2 579409139#3 315929406#1 315929406#2"/>
    </vehicle>
    <vehicle id="59" depart="118.00">
        <route edges="174059147#2 174059147#3 174059147#4 29892888#2 29892888#3 315929406#0 315929406#1 315929406#2 315929406#3 1318066358#0 1318066358#1 1318066358#2 420659193#4 420659193#5 420659193#6 590294822#0 590294822#1 590294821 1055764967#0 1055764967#1 1055764966 551708627#0 551708627#1 551708627#2 551708627#3 551708627#4 589340823#0"/>
    </vehicle>
    <vehicle id="60" depart="120.00">
        <route edges="215666786#9 215666786#10 215666786#11 215666786#12 -1371385741#2 -1371385741#1 -1371385741#0 -1371385742 -1371385743 -584930688 584930687#0 584930687#1 584930687#2 584930687#3 584930687#4 248378000#0 248378000#1 248378000#2 248378000#3 248378000#4 248378000#5 248378000#6 248378000#7 248378000#8 1317914963"/>
    </vehicle>
    <vehicle id="61" depart="122.00">
        <route edges="315929404#2 315929404#3 315929404#4 -1317914966#2 -1317914966#1 -1317914966#0 1106620645#0 4406582#0 4406582#1 4406582#2 4406582#3 4406582#4 174059192#2 4406723"/>
    </vehicle>
    <vehicle id="62" depart="124.00">
        <route edges="1111170241#0 1111170241#1 1111170241#2 1318066358#0 1318066358#1 1318066358#2 420659193#4 420659193#5 420659193#6 590294822#0 590294822#1 590294821 1055764967#0 1055764967#1 1055764966 551708627#0 551708627#1 551708627#2 551708627#3 551708627#4 589340825 30134990#0 30134990#1 -36363698#2 -36363698#1 203937514"/>
    </vehicle>
    <vehicle id="63" depart="126.00">
        <route edges="215666794 215666784#1 551708627#1 551708627#2 551708627#3 551708627#4 589340825 30134990#0 30134990#1"/>
    </vehicle>
    <vehicle id="64" depart="128.00">
        <route edges="214262735#3 214262735#4 214262735#5 526279652#1 526279652#2 526279652#3 -4071555#8 -4071555#7 -4071555#6 -4071555#5 -4071555#4 -4071555#3 -4071555#2 -4071555#1 -4071555#0 422708236#1 422517487 4071848 422517479#0 422517479#1 583985890#0 583985890#1 422708236#0 4071555#0"/>
    </vehicle>
    <vehicle id="65" depart="130.00">
        <route edges="1371385737 422517487 4071848 422517479#0 422517479#1 583985890#0 583985890#1 422708236#0 4071555#0 4071555#1 4071555#2 4071555#3 4071555#4 4071555#5 4071555#6 4071555#7 4071555#8 1317914966#0 1317914966#1 1317914966#2 315929406#0 315929406#1 315929406#2 315929406#3 1318066358#0 1318066358#1"/>
    </vehicle>
    <vehicle id="66" depart="132.00">
        <route edges="-215666792#1 -215666792#0 -97669073#1 215666784#0 215666784#1 551708627#1 551708627#2 551708627#3 551708627#4 589340825 589340824#0 589340824#1 589340824#2 315894489#0 315894489#1 315894489#2 315894489#3 315894489#4 584930688 1371385743 1371385742 1371385741#0 1371385741#1 1371385741#2 853735143#0 853735143#1 853735143#2 853305056 1371385740 1371385739 1371385738 1371385737 422517487 422517464 422517473"/>
    </vehicle>
    <vehicle id="67" depart="134.00">
        <route edges="1318066359#2 1111170241#0 1111170241#1 1111170241#2 1318066358#0 1318066358#1 1318066358#2 420659193#4 420659193#5 420659193#6 590294822#0 590294822#1 590294821 1055764967#0 1055764967#1 588802766 97669073#0 97669073#1 590294839#0 590294839#1"/>
    </vehicle>
    <vehicle id="68" depart="136.00">
        <route edges="588802765#2 248378000#4 579499691#1 579499691#2 579499691#3 588802766 97669073#0 97669073#1 215666792#0 215666792#1 -215666792#1"/>
    </vehicle>
    <vehicle id="69" depart="138.00">
        <route edges="1371385741#0 1371385741#1 1371385741#2 853735143#0 853735143#1 853735143#2 853305056 1371385740 1371385739 1371385738 1371385737 422517487 4071848 422517479#0 422517479#1 583985890#0 583985890#1 422708236#0 4071555#0 4071555#1 4071555#2 4071555#3 8101427#5 8101427#6 215667737#1 215667737#2 215667732 4406538#12"/>
    </vehicle>
    <vehicle id="70" depart="140.00">
        <route edges="1317914966#1 1317914966#2 315929406#0 315929406#1 315929406#2 315929406#3 1318066358#0 1318066358#1 1318066358#2 420659193#4 420659193#5 420659193#6 590294822#0 590294822#1 590294821 1055764967#0 1055764967#1 1055764966 551708627#0 551708627#1 551708627#2 551708627#3 551708627#4 589340825 589340824#0 589340824#1 589340824#2 315894489#0 315894489#1 315894489#2 315894489#3 315894489#4 463274116 97667277 409536725 -409536725 -97667277 -463274116"/>
    </vehicle>
    <vehicle id="71" depart="142.00">
        <route edges="8101427#5 174115192#0 174115192#1 174115192#2 -1371385739 -1371385740 -853305056 -853735143#2 -853735143#1 -853735143#0 -1371385741#2 -1371385741#1 -1371385741#0 -1371385742 -1371385743 -584930688 584930687#0 584930687#1 584930687#2 584930687#3 584930687#4 215666286#0 215666286#1 215666286#2 589340825 30134990#0 30134990#1 -36363698#2 -36363698#1 36363698#1 36363698#2"/>
    </vehicle>
    <vehicle id="72" depart="144.00">
        <route edges="28944192#0 215666789 97668333#1 97668333#2 215666786#8 215666786#9 215666785#0 215666785#1 215666785#2 215666785#3 215666785#4 215666785#5 575598853#0 575598853#1"/>
    </vehicle>
    <vehicle id="73" depart="146.00">
        <route edges="-34881334#3 -34881334#2 -34881334#1 -34881334#0 34881334#0 34881334#1 34881334#2 34881334#3 -215666786#12 -215666786#11 -215666786#10 -215666786#9 579499692#0 34881402#0 215666791"/>
    </vehicle>
    <vehicle id="74" depart="148.00">
        <route edges="215666786#9 215666786#10 215666786#11 215666786#12 -1371385741#2 -1371385741#1 -1371385741#0 -1371385742 -1371385743 -584930688 584930687#0 584930687#1 584930687#2 584930687#3 584930687#4 248378000#0 248378000#1 248378000#2 248378000#3 248378000#4 248378000#5 248378000#6 248378000#7 248378000#8"/>
    </vehicle>
    <vehicle id="75" depart="150.00">
        <route edges="4406723 174059211#1 4406507#0 4406507#1 4406507#2 4406507#3 -8101428 4071555#5 4071555#6 4071555#7 4071555#8 1317914966#0 1317914966#1 1317914966#2 315929406#0 315929406#1 214262735#3 214262735#4 214262735#5 526279652#1 526279652#2 4406538#14 4406538#15"/>
    </vehicle>
    <vehicle id="76" depart="152.00">
        <route edges="97669073#0 215666784#0 215666784#1 551708627#1 551708627#2 551708627#3 551708627#4 589340825 30134990#0 30134990#1 -36363698#2 -36363698#1 -36363698#0"/>
    </vehicle>
    <vehicle id="77" depart="154.00">
        <route edges="215666786#1 -215666786#1 -215666786#0 526279652#0 526279652#1 579409139#1 579409139#2 579409139#3 315929406#1 214262735#3 214262735#4"/>
    </vehicle>
    <vehicle id="78" depart="156.00">
        <route edges="1106620641#2 1318066359#0 1318066359#1 1318066359#2 526279652#0 526279652#1 526279652#2 526279652#3 -4071555#8 -4071555#7 -4071555#6 -4071555#5 -4071555#4 8101427#5 8101427#6 215667737#1"/>
    </vehicle>
    <vehicle id="79" depart="158.00">
        <route edges="215666786#8 215666786#9 215666785#0 215666785#1 215666785#2 215666785#3 4071555#2 4071555#3 4071555#4 8101428 174059192#0 174059192#1"/>
    </vehicle>
    <vehicle id="80" depart="160.00">
        <route edges="1372244322 1372244321 583985890#1 422708236#0 4071555#0 4071555#1 4071555#2 4071555#3 8101427#5 8101427#6 8101427#7 8101113#5"/>
    </vehicle>
    <vehicle id="81" depart="162.00">
        <route edges="215667725 4071555#6 4071555#7 4071555#8 1317914966#0 1317914966#1 1317914966#2 315929406#0 315929406#1 315929406#2 315929406#3 1318066358#0 1318066358#1 1318066358#2 420659193#4 420659193#5 420659193#6 590294822#0 590294822#1 590294821 1055764967#0 1055764967#1 588802766 1055764965 588802765#0 588802765#1 588802765#2 588802765#3"/>
    </vehicle>
    <vehicle id="82" depart="164.00">
        <route edges="315929406#2 315929406#3 1318066358#0 1318066358#1 1318066358#2 420659193#4 420659193#5 420659193#6 590294822#0 590294822#1 590294821 1055764967#0 1055764967#1 1055764966 551708627#0 551708627#1 551708627#2 551708627#3 551708627#4 589340825 589340824#0 589340824#1 589340824#2 315894489#0 315894489#1 315894489#2 315894489#3 315894489#4 584930687#0 97668334#0 34881423 215666791 215666786#10 215666786#11 215666786#12 -215666786#12 -215666786#11"/>
    </vehicle>
    <vehicle id="83" depart="166.00">
        <route edges="97670022 -589097326#0 4406582#2 174059147#0 174059147#1 174059147#2 174059147#3 174059147#4 29892888#2 29892888#3 -315929404#4 -315929404#3 -315929404#2 -315929404#1 174059223#0 174059223#1 579806768#0 579806768#1"/>
    </vehicle>
    <vehicle id="84" depart="168.00">
        <route edges="584930687#3 584930687#4 215666286#0 215666286#1 215666286#2 589340825 589340824#0 589340824#1 589340824#2 315894489#0 315894489#1 315894489#2 315894489#3 315894489#4 463274116 97667277 409536725 -409536725 -97667277"/>
    </vehicle>
    <vehicle id="85" depart="170.00">
        <route edges="28944195 215666795 -215666786#8 -215666786#7 -215666786#6 -215666786#5 -215666786#4 -215666786#3 -215666786#2 -215666786#1 -215666786#0 526279652#0 526279652#1 526279652#2 526279652#3 1317914966#0"/>
    </vehicle>
    <vehicle id="86" depart="172.00">
        <route edges="215666786#0 215666786#1 215666786#2 215666786#3 215666786#4 -215666786#4"/>
    </vehicle>
    <vehicle id="87" depart="174.00">
        <route edges="215666784#0 215666784#1 215666784#2 215666784#3 215666784#4 248378000#2 248378000#3 248378000#4 579499691#1 579499691#2 579499691#3 588802766 97669073#0 97669073#1"/>
    </vehicle>
    <vehicle id="88" depart="176.00">
        <route edges="174059147#2 174059147#3 174059147#4 29892888#2 29892888#3 -1317914966#2 -1317914966#1 -1317914966#0 -4071555#8 -4071555#7 -4071555#6 -4071555#5 -4071555#4 -4071555#3 -4071555#2 215666785#4 215666785#5 575598853#0 575598853#1"/>
    </vehicle>
    <vehicle id="89" depart="178.00">
        <route edges="248378000#1 248378000#2 -28944194#1 -28944194#0 28944196#1 97668333#0 97668333#1 97668333#2 215666786#8 215666786#9"/>
    </vehicle>
    <vehicle id="90" depart="180.00">
        <route edges="97668330#0 4071555#8 1317914966#0 1317914966#1 1317914966#2 315929406#0 315929406#1 315929406#2 315929406#3 1318066358#0 1318066358#1 1318066358#2 97669074#0 97669074#1 97669074#2-AddedOnRampEdge 97669074#2 97669074#3"/>
    </vehicle>
    <vehicle id="91" depart="182.00">
        <route edges="34881334#1 34881334#2 34881334#3 853735143#0 853735143#1 853735143#2 853305056 1371385740 1371385739 1371385738 1371385737 422517487 4071848 422517479#0 422517479#1 583985890#0 583985890#1 422708236#0 4071555#0 4071555#1 4071555#2 4071555#3 4071555#4 4071555#5 4071555#6 97670022 -589097326#0 4406582#2 4406582#3 4406582#4"/>
    </vehicle>
    <vehicle id="92" depart="184.00">
        <route edges="-731675441 731675441 570654049#2 29892888#1 29892888#2 29892888#3 -1317914966#2 -1317914966#1 -1317914966#0 -4071555#8 -4071555#7 -4071555#6 -4071555#5 -4071555#4 8101427#5 174115192#0"/>
    </vehicle>
    <vehicle id="93" depart="186.00">
        <route edges="97668333#0 97668333#1 97668333#2 215666786#8 215666786#9 215666786#10 215666786#11 215666786#12 853735143#0 853735143#1 853735143#2 853305056 1371385740 1371385739 1371385738 1371385737 422517487 4071848 422517479#0 38556539#0"/>
    </vehicle>
    <vehicle id="94" depart="188.00">
        <route edges="315929404#3 315929404#4 -1317914966#2 -1317914966#1 -1317914966#0 1106620645#0 1106620645#1 1106620645#2 545223627#0"/>
    </vehicle>
    <vehicle id="95" depart="190.00">
        <route edges="-215666786#3 -215666786#2 -215666786#1 -215666786#0 526279652#0 526279652#1 526279652#2 526279652#3 -4071555#8 -4071555#7 -4071555#6 -4071555#5 -4071555#4 -4071555#3 -4071555#2 -4071555#1 -4071555#0 422708236#1 422517487 4071848 422517479#0 422517479#1 583985890#0 -1372244321 -1372244322 -38556540#1 38556540#1"/>
    </vehicle>
    <vehicle id="96" depart="192.00">
        <route edges="29892818#1 29892818#2 215666794 215666784#1 551708627#1 551708627#2 551708627#3 551708627#4 589340825 589340824#0 589340824#1 589340824#2 315894489#0 315894489#1 315894489#2 315894489#3 315894489#4 584930688"/>