<?xml version="1.0" encoding="UTF-8"?>

<!-- generated on 2025-06-12 20:48:26.333578 by randomTrips.py v1_23_1+0000-676720d13f6
<configuration>
    <net-file value="goodmap.net.xml"/>
    <output-trip-file value="trips_nouveau.trips.xml"/>
    <validate value="True"/>
    <end value="1000.0"/>
    <period value="1.5"/>
</configuration>
-->

<routes xmlns:xsi="http://www.w3.org/2001/XMLSchema-instance" xsi:noNamespaceSchemaLocation="http://sumo.dlr.de/xsd/routes_file.xsd">
    <trip id="0" depart="0.00" from="4406498#0" to="-1371385741#2"/>
    <trip id="1" depart="1.50" from="526279652#0" to="4406538#4"/>
    <trip id="2" depart="3.00" from="589926548" to="-315929404#3"/>
    <trip id="3" depart="4.50" from="215666790#0" to="-1371385743"/>
    <trip id="4" depart="6.00" from="1318066358#0" to="29892818#1"/>
    <trip id="5" depart="7.50" from="4406507#1" to="315929404#2"/>
    <trip id="6" depart="9.00" from="1318066358#1" to="4071555#2"/>
    <trip id="7" depart="10.50" from="579482353#2" to="-1317914966#0"/>
    <trip id="8" depart="12.00" from="579482353#0" to="4406545#5"/>
    <trip id="9" depart="13.50" from="214262735#8" to="-853305056"/>
    <trip id="10" depart="15.00" from="97668330#0" to="214262735#3"/>
    <trip id="11" depart="16.50" from="-34881334#2" to="-34881334#3"/>
    <trip id="12" depart="18.00" from="584930687#2" to="418848877"/>
    <trip id="13" depart="19.50" from="315929404#1" to="97668334#0"/>
    <trip id="14" depart="21.00" from="215666784#3" to="315929406#1"/>
    <trip id="15" depart="22.50" from="579499692#0" to="420659193#6"/>
    <trip id="16" depart="24.00" from="588802765#2" to="36854081#1"/>
    <trip id="17" depart="25.50" from="1318066359#2" to="174115149#0"/>
    <trip id="18" depart="27.00" from="-28944194#1" to="1371385739"/>
    <trip id="19" depart="28.50" from="423702947#0" to="214262750#0"/>
    <trip id="20" depart="30.00" from="215666286#2" to="1317914966#0"/>
    <trip id="21" depart="31.50" from="174059147#2" to="8101427#7"/>
    <trip id="22" depart="33.00" from="-97668332" to="215666784#1"/>
    <trip id="23" depart="34.50" from="34881334#3" to="4406538#8"/>
    <trip id="24" depart="36.00" from="584930687#0" to="575598852"/>
    <trip id="25" depart="37.50" from="1318066359#2" to="-1372244322"/>
    <trip id="26" depart="39.00" from="214262735#0" to="174059153#0"/>
    <trip id="27" depart="40.50" from="1317914963" to="853305056"/>
    <trip id="28" depart="42.00" from="589340823#1" to="209983654#0"/>
    <trip id="29" depart="43.50" from="4406538#0" to="215666785#4"/>
    <trip id="30" depart="45.00" from="8101113#1" to="248378000#3"/>
    <trip id="31" depart="46.50" from="174059147#1" to="1372244321"/>
    <trip id="32" depart="48.00" from="34881402#1" to="174059147#2"/>
    <trip id="33" depart="49.50" from="4071555#0" to="590294822#1"/>
    <trip id="34" depart="51.00" from="215666786#11" to="1318066358#2"/>
    <trip id="35" depart="52.50" from="-34881334#1" to="-215666786#1"/>
    <trip id="36" depart="54.00" from="-4071555#3" to="422517473"/>
    <trip id="37" depart="55.50" from="579409139#0" to="215666786#8"/>
    <trip id="38" depart="57.00" from="-215666786#7" to="215666784#2"/>
    <trip id="39" depart="58.50" from="97668333#1" to="589097326#0"/>
    <trip id="40" depart="60.00" from="-1371385738" to="4406626#2"/>
    <trip id="41" depart="61.50" from="4406538#6" to="315894489#3"/>
    <trip id="42" depart="63.00" from="174059147#2" to="4406498#2"/>
    <trip id="43" depart="64.50" from="-4071555#4" to="215666792#1"/>
    <trip id="44" depart="66.00" from="248378000#4" to="97667277"/>
    <trip id="45" depart="67.50" from="589340823#1" to="174059147#3"/>
    <trip id="46" depart="69.00" from="29892818#2" to="1055764967#0"/>
    <trip id="47" depart="70.50" from="8101113#0" to="589340823#1"/>
    <trip id="48" depart="72.00" from="174115192#2" to="4406498#1"/>
    <trip id="49" depart="73.50" from="420659193#2" to="-731675441"/>
    <trip id="50" depart="75.00" from="551708627#0" to="315894489#4"/>
    <trip id="51" depart="76.50" from="575598852" to="315894489#0"/>
    <trip id="52" depart="78.00" from="-1059827896#1" to="214262735#1"/>
    <trip id="53" depart="79.50" from="-1371385741#1" to="8101427#3"/>
    <trip id="54" depart="81.00" from="589340823#2" to="579806768#1"/>
    <trip id="55" depart="82.50" from="174115332#0" to="-215666786#4"/>
    <trip id="56" depart="84.00" from="589340823#2" to="853735143#1"/>
    <trip id="57" depart="85.50" from="-315929404#2" to="28944194#1"/>
    <trip id="58" depart="87.00" from="-215666792#0" to="551708627#0"/>
    <trip id="59" depart="88.50" from="551708627#1" to="-421572462#1"/>
    <trip id="60" depart="90.00" from="28944193#1" to="315929406#0"/>
    <trip id="61" depart="91.50" from="174059147#1" to="589340823#1"/>
    <trip id="62" depart="93.00" from="215666790#0" to="1317914966#1"/>
    <trip id="63" depart="94.50" from="1111170241#0" to="203937531"/>
    <trip id="64" depart="96.00" from="215667732" to="29892888#3"/>
    <trip id="65" depart="97.50" from="214262735#7" to="4071555#2"/>
    <trip id="66" depart="99.00" from="1371385737" to="1318066358#2"/>
    <trip id="67" depart="100.50" from="-215666792#1" to="422708233#1"/>
    <trip id="68" depart="102.00" from="1318066359#2" to="731047775"/>
    <trip id="69" depart="103.50" from="588802765#1" to="-215666792#0"/>
    <trip id="70" depart="105.00" from="1371385741#0" to="4406538#15"/>
    <trip id="71" depart="106.50" from="1317914966#1" to="-463274116"/>
    <trip id="72" depart="108.00" from="8101427#5" to="36363698#1"/>
    <trip id="73" depart="109.50" from="28944193#0" to="575598854#1"/>
    <trip id="74" depart="111.00" from="579482353#1" to="1106620645#1"/>
    <trip id="75" depart="112.50" from="215666790#1" to="248378000#7"/>
    <trip id="76" depart="114.00" from="519657941#0" to="4406538#3"/>
    <trip id="77" depart="115.50" from="97669073#0" to="-36363698#0"/>
    <trip id="78" depart="117.00" from="215666786#12" to="214262735#5"/>
    <trip id="79" depart="118.50" from="1106620641#2" to="215667737#1"/>
    <trip id="80" depart="120.00" from="215666790#0" to="174059192#2"/>
    <trip id="81" depart="121.50" from="1372244321" to="8101113#6"/>
    <trip id="82" depart="123.00" from="215667737#1" to="589097326#0"/>
    <trip id="83" depart="124.50" from="315929406#3" to="-215666786#11"/>
    <trip id="84" depart="126.00" from="97670022" to="583033158#1"/>
    <trip id="85" depart="127.50" from="584930687#2" to="-97668332"/>
    <trip id="86" depart="129.00" from="28944196#1" to="1317914966#2"/>
    <trip id="87" depart="130.50" from="215666786#11" to="-215666786#4"/>
    <trip id="88" depart="132.00" from="215666784#3" to="97669073#1"/>
    <trip id="89" depart="133.50" from="174059147#1" to="575598854#1"/>
    <trip id="90" depart="135.00" from="248378000#4" to="215666786#9"/>
    <trip id="91" depart="136.50" from="97668330#0" to="97669074#3"/>
    <trip id="92" depart="138.00" from="-853305056" to="174115192#1"/>
    <trip id="93" depart="139.50" from="97668333#0" to="38556539#0"/>
    <trip id="94" depart="141.00" from="315929404#4" to="545223629#1"/>
    <trip id="95" depart="142.50" from="-215666786#4" to="4071555#0"/>
    <trip id="96" depart="144.00" from="29892818#3" to="588802765#1"/>
    <trip id="97" depart="145.50" from="-853735143#1" to="97668330#3"/>
    <trip id="98" depart="147.00" from="4071555#6" to="4406538#3"/>
    <trip id="99" depart="148.50" from="1371385739" to="-4071555#6"/>
    <trip id="100" depart="150.00" from="589340829" to="1372244321"/>
    <trip id="101" depart="151.50" from="4071555#5" to="420659193#6"/>
    <trip id="102" depart="153.00" from="215666786#9" to="4071555#0"/>
    <trip id="103" depart="154.50" from="315894489#0" to="8101427#6"/>
    <trip id="104" depart="156.00" from="1111170241#2" to="4406582#5"/>
    <trip id="105" depart="157.50" from="1371385741#0" to="215666785#4"/>
    <trip id="106" depart="159.00" from="4406538#16" to="174115207"/>
    <trip id="107" depart="160.50" from="214262735#0" to="545223629#3"/>
    <trip id="108" depart="162.00" from="-215666792#1" to="248378000#3"/>
    <trip id="109" depart="163.50" from="97670022" to="97669074#4"/>
    <trip id="110" depart="165.00" from="-215666794" to="1317914966#2"/>
    <trip id="111" depart="166.50" from="174059147#1" to="8101427#5"/>
    <trip id="112" depart="168.00" from="589340824#0" to="589340824#2"/>
    <trip id="113" depart="169.50" from="215666286#2" to="-853735143#0"/>
    <trip id="114" depart="171.00" from="579499693" to="4406573#1"/>
    <trip id="115" depart="172.50" from="420659193#3" to="97669074#0"/>
    <trip id="116" depart="174.00" from="4406507#3" to="-1317914966#0"/>
    <trip id="117" depart="175.50" from="579487442" to="174115207"/>
    <trip id="118" depart="177.00" from="4406538#12" to="8101427#8"/>
    <trip id="119" depart="178.50" from="-584930688" to="-4071555#3"/>
    <trip id="120" depart="180.00" from="-4071555#2" to="315929406#1"/>
    <trip id="121" depart="181.50" from="174059153#0" to="418848877"/>
    <trip id="122" depart="183.00" from="422708233#2" to="174059147#3"/>
    <trip id="123" depart="184.50" from="28944196#3" to="731047775"/>
    <trip id="124" depart="186.00" from="584930687#1" to="-34881334#1"/>
    <trip id="125" depart="187.50" from="215666790#1" to="174059192#1"/>
    <trip id="126" depart="189.00" from="-1317914966#0" to="570654049#1"/>
    <trip id="127" depart="190.50" from="423702947#1" to="174059147#2"/>
    <trip id="128" depart="192.00" from="526279652#2" to="315929406#0"/>
    <trip id="129" depart="193.50" from="215666792#0" to="-1317914966#1"/>
    <trip id="130" depart="195.00" from="-286079207" to="589340826"/>
    <trip id="131" depart="196.50" from="590294839#0" to="315929404#2"/>
    <trip id="132" depart="198.00" from="579499693" to="38556540#1"/>
    <trip id="133" depart="199.50" from="-731047775" to="-421572462#0"/>
    <trip id="134" depart="201.00" from="174115332#0" to="590294835"/>
    <trip id="135" depart="202.50" from="579409139#2" to="589097326#0"/>
    <trip id="136" depart="204.00" from="590294821" to="1317914966#0"/>
    <trip id="137" depart="205.50" from="1372244321" to="-36363698#2"/>
    <trip id="138" depart="207.00" from="575598852" to="589340826"/>
    <trip id="139" depart="208.50" from="215666786#3" to="421572462#1"/>
    <trip id="140" depart="210.00" from="-853305056" to="8101427#3"/>
    <trip id="141" depart="211.50" from="588802765#3" to="97668334#2"/>
    <trip id="142" depart="213.00" from="579482353#3" to="589340825"/>
    <trip id="143" depart="214.50" from="-1371385743" to="526279652#1"/>
    <trip id="144" depart="216.00" from="214262735#4" to="8101427#4"/>
    <trip id="145" depart="217.50" from="579409141" to="589097326#1"/>
    <trip id="146" depart="219.00" from="579482353#3" to="174059147#4"/>
    <trip id="147" depart="220.50" from="575598854#1" to="-4071555#0"/>
    <trip id="148" depart="222.00" from="589326111" to="588802766"/>
    <trip id="149" depart="223.50" from="1318066358#2" to="579499691#0"/>
    <trip id="150" depart="225.00" from="248378000#7" to="174115332#0"/>
    <trip id="151" depart="226.50" from="579409139#2" to="1371385737"/>
    <trip id="152" depart="228.00" from="-1371385742" to="1106620645#2"/>
    <trip id="153" depart="229.50" from="214262735#2" to="589097326#1"/>
    <trip id="154" depart="231.00" from="97668332" to="174059192#3"/>
    <trip id="155" depart="232.50" from="4406498#1" to="215666786#0"/>
    <trip id="156" depart="234.00" from="97668334#3" to="315894489#3"/>
    <trip id="157" depart="235.50" from="8101427#6" to="-4071555#3"/>
    <trip id="158" depart="237.00" from="97668333#1" to="1055764967#0"/>
    <trip id="159" depart="238.50" from="97668330#3" to="174059147#4"/>
    <trip id="160" depart="240.00" from="-4071555#2" to="215666792#1"/>
    <trip id="161" depart="241.50" from="519657941#0" to="209983654#0"/>
    <trip id="162" depart="243.00" from="420659193#0-AddedOffRampEdge" to="29892888#0"/>
    <trip id="163" depart="244.50" from="215666785#2" to="36854081#1"/>
    <trip id="164" depart="246.00" from="315929404#3" to="4406626#2"/>
    <trip id="165" depart="247.50" from="526279652#3" to="4406538#16"/>
    <trip id="166" depart="249.00" from="214862254" to="-215666792#0"/>
    <trip id="167" depart="250.50" from="4406538#12" to="214262735#12"/>
    <trip id="168" depart="252.00" from="4406626#1" to="174115207"/>
    <trip id="169" depart="253.50" from="215666786#12" to="174115192#1"/>
    <trip id="170" depart="255.00" from="-463274116" to="215666786#8"/>
    <trip id="171" depart="256.50" from="8101427#7" to="4406538#5"/>
    <trip id="172" depart="258.00" from="590294822#1" to="420659193#4"/>
    <trip id="173" depart="259.50" from="174115207" to="315929404#4"/>
    <trip id="174" depart="261.00" from="-1059827896#1" to="174059223#2"/>
    <trip id="175" depart="262.50" from="215666793" to="38556539#1"/>
    <trip id="176" depart="264.00" from="4406507#3" to="248378000#6"/>
    <trip id="177" depart="265.50" from="215667737#1" to="1317914966#2"/>
    <trip id="178" depart="267.00" from="28944193#0" to="590294839#0"/>
    <trip id="179" depart="268.50" from="579409139#2" to="-97669073#0"/>
    <trip id="180" depart="270.00" from="-315929404#2" to="29892888#2"/>
    <trip id="181" depart="271.50" from="422708233#1" to="214262735#3"/>
    <trip id="182" depart="273.00" from="579487442" to="545223629#3"/>
    <trip id="183" depart="274.50" from="1371385742" to="28944192#0"/>
    <trip id="184" depart="276.00" from="584930687#3" to="-215666794"/>
    <trip id="185" depart="277.50" from="215666786#7" to="422708233#1"/>
    <trip id="186" depart="279.00" from="1106620645#1" to="4406545#4"/>
    <trip id="187" depart="280.50" from="28944200#1" to="1371385743"/>
    <trip id="188" depart="282.00" from="545223629#1" to="570654049#0"/>
    <trip id="189" depart="283.50" from="-4071555#1" to="215666789"/>
    <trip id="190" depart="285.00" from="1055764966" to="97668330#1"/>
    <trip id="191" depart="286.50" from="1372244321" to="584930688"/>
    <trip id="192" depart="288.00" from="248378000#5" to="579482353#0"/>
    <trip id="193" depart="289.50" from="4406538#14" to="97669074#0"/>
    <trip id="194" depart="291.00" from="4071555#6" to="853735143#2"/>
    <trip id="195" depart="292.50" from="4406626#1" to="29892818#1"/>
    <trip id="196" depart="294.00" from="579499692#0" to="315929404#4"/>
    <trip id="197" depart="295.50" from="590294821" to="545223627#1"/>
    <trip id="198" depart="297.00" from="28944193#1" to="174059147#1"/>
    <trip id="199" depart="298.50" from="1371385743" to="4406498#1"/>
    <trip id="200" depart="300.00" from="551708627#1" to="30134990#1"/>
    <trip id="201" depart="301.50" from="422517464" to="174059192#0"/>
    <trip id="202" depart="303.00" from="-28944194#0" to="174059223#1"/>
    <trip id="203" depart="304.50" from="174059147#4" to="209984048"/>
    <trip id="204" depart="306.00" from="315929404#3" to="-584930688"/>
    <trip id="205" depart="307.50" from="1371385737" to="4406545#3"/>
    <trip id="206" depart="309.00" from="4406582#0" to="-215666786#7"/>
    <trip id="207" depart="310.50" from="215666786#4" to="315929404#1"/>
    <trip id="208" depart="312.00" from="215666789" to="731047775"/>
    <trip id="209" depart="313.50" from="4071555#0" to="4406545#4"/>
    <trip id="210" depart="315.00" from="588802764" to="551708627#3"/>
    <trip id="211" depart="316.50" from="214262741#1" to="545223629#4"/>
    <trip id="212" depart="318.00" from="584930688" to="97667277"/>
    <trip id="213" depart="319.50" from="215666786#9" to="545223629#1"/>
    <trip id="214" depart="321.00" from="315929406#1" to="409536725"/>
    <trip id="215" depart="322.50" from="1318066358#1" to="1318066358#2"/>
    <trip id="216" depart="324.00" from="215667725" to="-1371385743"/>
    <trip id="217" depart="325.50" from="214262735#6" to="4406538#5"/>
    <trip id="218" depart="327.00" from="215666786#2" to="-97667277"/>
    <trip id="219" depart="328.50" from="286079207" to="-421572462#1"/>
    <trip id="220" depart="330.00" from="421572462#1" to="-1371385742"/>
    <trip id="221" depart="331.50" from="215666786#0" to="34881402#0"/>
    <trip id="222" depart="333.00" from="-588802764" to="248378000#4"/>
    <trip id="223" depart="334.50" from="-215666786#11" to="215666784#1"/>
    <trip id="224" depart="336.00" from="1317914963" to="214262735#11"/>
    <trip id="225" depart="337.50" from="545223629#6" to="215666784#1"/>
    <trip id="226" depart="339.00" from="545223629#1" to="579806768#1"/>
    <trip id="227" depart="340.50" from="1372244323" to="-315929404#1"/>
    <trip id="228" depart="342.00" from="-1371385741#1" to="315894489#4"/>
    <trip id="229" depart="343.50" from="97670022" to="214262737#0"/>
    <trip id="230" depart="345.00" from="4406507#1" to="575598854#0"/>
    <trip id="231" depart="346.50" from="4406507#2" to="545223629#4"/>
    <trip id="232" depart="348.00" from="853735143#1" to="1111170241#1"/>
    <trip id="233" depart="349.50" from="-1371385741#2" to="-731675441"/>
    <trip id="234" depart="351.00" from="-421572462#2" to="4406538#16"/>
    <trip id="235" depart="352.50" from="34881423" to="1318066358#1"/>
    <trip id="236" depart="354.00" from="4406545#4" to="551708627#3"/>
    <trip id="237" depart="355.50" from="545223627#1" to="-4071555#3"/>
    <trip id="238" depart="357.00" from="579495640" to="97668332"/>
    <trip id="239" depart="358.50" from="-4071555#2" to="-1371385741#2"/>
    <trip id="240" depart="360.00" from="97668330#1" to="215666785#5"/>
    <trip id="241" depart="361.50" from="4406582#4" to="-28944194#0"/>
    <trip id="242" depart="363.00" from="4406545#0" to="422517473"/>
    <trip id="243" depart="364.50" from="584930687#3" to="4071555#8"/>
    <trip id="244" depart="366.00" from="-409536725" to="97669073#0"/>
    <trip id="245" depart="367.50" from="575598853#1" to="214262735#9"/>
    <trip id="246" depart="369.00" from="215666792#0" to="215666286#0"/>
    <trip id="247" depart="370.50" from="29892888#0" to="214262735#6"/>
    <trip id="248" depart="372.00" from="584930687#3" to="579499691#3"/>
    <trip id="249" depart="373.50" from="-4071555#1" to="97668330#3"/>
    <trip id="250" depart="375.00" from="423702947#0" to="579806768#0"/>
    <trip id="251" depart="376.50" from="4406582#0" to="215666792#1"/>
    <trip id="252" depart="378.00" from="519657941#2" to="97668332"/>
    <trip id="253" depart="379.50" from="174059147#3" to="579482353#3"/>
    <trip id="254" depart="381.00" from="315929404#2" to="28944194#0"/>
    <trip id="255" depart="382.50" from="174059147#3" to="588802765#0"/>
    <trip id="256" depart="384.00" from="579499692#1" to="-315929404#3"/>
    <trip id="257" depart="385.50" from="589340824#1" to="1371385743"/>
    <trip id="258" depart="387.00" from="215666784#3" to="-1371385743"/>
    <trip id="259" depart="388.50" from="1317914966#0" to="579409141"/>
    <trip id="260" depart="390.00" from="214262735#8" to="589340824#2"/>
    <trip id="261" depart="391.50" from="4406545#5" to="174059192#1"/>
    <trip id="262" depart="393.00" from="-1371385738" to="853735143#1"/>
    <trip id="263" depart="394.50" from="-315929404#2" to="4406626#2"/>
    <trip id="264" depart="396.00" from="28944196#3" to="545223629#6"/>
    <trip id="265" depart="397.50" from="4406545#0" to="4406507#0"/>
    <trip id="266" depart="399.00" from="28944196#4" to="579409139#3"/>
    <trip id="267" depart="400.50" from="4406545#1" to="174115332#0"/>
    <trip id="268" depart="402.00" from="38706598" to="286079207"/>
    <trip id="269" depart="403.50" from="315894489#4" to="215666789"/>
    <trip id="270" depart="405.00" from="545223627#0" to="214262735#13"/>
    <trip id="271" depart="406.50" from="4406545#6" to="174059153#2"/>
    <trip id="272" depart="408.00" from="1372244322" to="-4071555#6"/>
    <trip id="273" depart="409.50" from="1106620645#0" to="-4071555#6"/>
    <trip id="274" depart="411.00" from="315929404#1" to="551708627#1"/>
    <trip id="275" depart="412.50" from="1059827896#1" to="1318066358#0"/>
    <trip id="276" depart="414.00" from="28944196#1" to="4406723"/>
    <trip id="277" depart="415.50" from="97668334#1" to="30134990#3"/>
    <trip id="278" depart="417.00" from="174059192#2" to="-36363698#1"/>
    <trip id="279" depart="418.50" from="1106620645#1" to="1371385737"/>
    <trip id="280" depart="420.00" from="1055764967#1" to="-1371385738"/>
    <trip id="281" depart="421.50" from="315929404#0" to="174059192#0"/>
    <trip id="282" depart="423.00" from="97668334#0" to="315929406#1"/>
    <trip id="283" depart="424.50" from="4406545#3" to="-421572462#0"/>
    <trip id="284" depart="426.00" from="589097326#0" to="28944196#1"/>
    <trip id="285" depart="427.50" from="589326111" to="36854081#0"/>
    <trip id="286" depart="429.00" from="28944192#0" to="215666795"/>
    <trip id="287" depart="430.50" from="1059827896#1" to="-215666786#11"/>
    <trip id="288" depart="432.00" from="8101427#7" to="28944192#1"/>
    <trip id="289" depart="433.50" from="579499691#0" to="215666786#1"/>
    <trip id="290" depart="435.00" from="-215666794" to="422708233#0"/>
    <trip id="291" depart="436.50" from="-215666786#2" to="-590294839#1"/>
    <trip id="292" depart="438.00" from="34881423" to="174115314#1"/>
    <trip id="293" depart="439.50" from="315894489#0" to="215667737#2"/>
    <trip id="294" depart="441.00" from="215667737#1" to="588802766"/>
    <trip id="295" depart="442.50" from="526279652#2" to="853735143#1"/>
    <trip id="296" depart="444.00" from="4406538#10" to="-853305056"/>
    <trip id="297" depart="445.50" from="1055764965" to="-286079207"/>
    <trip id="298" depart="447.00" from="-1317914966#0" to="215667737#2"/>
    <trip id="299" depart="448.50" from="4071555#5" to="174115149#1"/>
    <trip id="300" depart="450.00" from="1371385737" to="4406582#0"/>
    <trip id="301" depart="451.50" from="4406545#6" to="248378000#0"/>
    <trip id="302" depart="453.00" from="4406538#8" to="8101113#6"/>
    <trip id="303" depart="454.50" from="575598854#1" to="422517464"/>
    <trip id="304" depart="456.00" from="4406538#10" to="8101427#5"/>
    <trip id="305" depart="457.50" from="215666790#1" to="315929404#2"/>
    <trip id="306" depart="459.00" from="4406507#0" to="731675442"/>
    <trip id="307" depart="460.50" from="579499691#3" to="-215666792#0"/>
    <trip id="308" depart="462.00" from="-97669071" to="174115332#1"/>
    <trip id="309" depart="463.50" from="545223629#0" to="34881423"/>
    <trip id="310" depart="465.00" from="174059223#0" to="-4071555#8"/>
    <trip id="311" depart="466.50" from="4406538#9" to="4406545#6"/>
    <trip id="312" depart="468.00" from="8101427#8" to="28944200#1"/>
    <trip id="313" depart="469.50" from="28944200#0" to="-315929404#0"/>
    <trip id="314" depart="471.00" from="-214262745#1" to="215666791"/>
    <trip id="315" depart="472.50" from="214262735#11" to="174059083#0"/>
    <trip id="316" depart="474.00" from="-34881334#1" to="97668330#3"/>
    <trip id="317" depart="475.50" from="579806768#0" to="36854081#0"/>
    <trip id="318" depart="477.00" from="853735143#1" to="97670022"/>
    <trip id="319" depart="478.50" from="4406538#16" to="174059153#1"/>
    <trip id="320" depart="480.00" from="-214262745#1" to="545223629#5"/>
    <trip id="321" depart="481.50" from="28944192#1" to="4406507#3"/>
    <trip id="322" depart="483.00" from="28944196#4" to="-34881334#0"/>
    <trip id="323" depart="484.50" from="214262739" to="214262735#2"/>
    <trip id="324" depart="486.00" from="4406538#15" to="588802765#3"/>
    <trip id="325" depart="487.50" from="214262735#3" to="4406545#3"/>
    <trip id="326" depart="489.00" from="174059211#1" to="853735143#0"/>
    <trip id="327" depart="490.50" from="579482353#4" to="315929406#0"/>
    <trip id="328" depart="492.00" from="248378000#4" to="209983654#0"/>
    <trip id="329" depart="493.50" from="214262735#12" to="97668333#2"/>
    <trip id="330" depart="495.00" from="215666786#2" to="29892888#2"/>
    <trip id="331" depart="496.50" from="315929406#0" to="215666786#4"/>
    <trip id="332" depart="498.00" from="1106620641#1" to="214262745#0"/>
    <trip id="333" depart="499.50" from="545223629#4" to="422517464"/>
    <trip id="334" depart="501.00" from="215667732" to="4406545#5"/>
    <trip id="335" depart="502.50" from="-409536725" to="97668334#0"/>
    <trip id="336" depart="504.00" from="420659193#2" to="1371385741#2"/>
    <trip id="337" depart="505.50" from="-853735143#1" to="315929406#0"/>
    <trip id="338" depart="507.00" from="34881334#0" to="-34881334#1"/>
    <trip id="339" depart="508.50" from="248378000#7" to="-4071555#4"/>
    <trip id="340" depart="510.00" from="579499692#1" to="28944200#0"/>
    <trip id="341" depart="511.50" from="4406626#0" to="29892818#3"/>
    <trip id="342" depart="513.00" from="174059153#0" to="583033158#1"/>
    <trip id="343" depart="514.50" from="97668334#3" to="1371385743"/>
    <trip id="344" depart="516.00" from="34881334#0" to="215666784#3"/>
    <trip id="345" depart="517.50" from="8101113#5" to="29892818#3"/>
    <trip id="346" depart="519.00" from="589340824#0" to="589097326#1"/>
    <trip id="347" depart="520.50" from="174059153#2" to="579409139#1"/>
    <trip id="348" depart="522.00" from="215666786#7" to="8101427#5"/>
    <trip id="349" depart="523.50" from="29892888#1" to="579499691#2"/>
    <trip id="350" depart="525.00" from="174059192#2" to="174115192#2"/>
    <trip id="351" depart="526.50" from="4071555#2" to="97670022"/>
    <trip id="352" depart="528.00" from="28944196#3" to="-590294839#1"/>
    <trip id="353" depart="529.50" from="315929404#3" to="214262735#8"/>
    <trip id="354" depart="531.00" from="34881334#0" to="315929404#1"/>
    <trip id="355" depart="532.50" from="248378000#4" to="214262735#0"/>
    <trip id="356" depart="534.00" from="1106620641#1" to="4406545#5"/>
    <trip id="357" depart="535.50" from="570654049#1" to="-214262745#1"/>
    <trip id="358" depart="537.00" from="545223627#0" to="4406582#0"/>
    <trip id="359" depart="538.50" from="579482353#3" to="215666784#4"/>
    <trip id="360" depart="540.00" from="4406538#12" to="579499691#3"/>
    <trip id="361" depart="541.50" from="97668334#3" to="28944196#3"/>
    <trip id="362" depart="543.00" from="-214262745#0" to="29892818#0"/>
    <trip id="363" depart="544.50" from="4071555#3" to="589340823#0"/>
    <trip id="364" depart="546.00" from="589340823#0" to="215666795"/>
    <trip id="365" depart="547.50" from="315894489#1" to="248378000#2"/>
    <trip id="366" depart="549.00" from="4406626#3" to="215666786#2"/>
    <trip id="367" depart="550.50" from="4406507#3" to="-8101428"/>
    <trip id="368" depart="552.00" from="28944192#0" to="97668333#1"/>
    <trip id="369" depart="553.50" from="214262735#7" to="4406545#2"/>
    <trip id="370" depart="555.00" from="4406507#1" to="588802765#0"/>
    <trip id="371" depart="556.50" from="584930687#4" to="588802766"/>
    <trip id="372" depart="558.00" from="215666784#4" to="209983654#1"/>
    <trip id="373" depart="559.50" from="4406626#1" to="551708627#0"/>
    <trip id="374" depart="561.00" from="589326111" to="-174115149#0"/>
    <trip id="375" depart="562.50" from="-215666786#9" to="422708233#1"/>
    <trip id="376" depart="564.00" from="8101113#4" to="97669074#4"/>
    <trip id="377" depart="565.50" from="545223627#1" to="215666792#0"/>
    <trip id="378" depart="567.00" from="589326111" to="215667725"/>
    <trip id="379" depart="568.50" from="4406545#2" to="590294839#1"/>
    <trip id="380" depart="570.00" from="-215666786#1" to="579409140"/>
    <trip id="381" depart="571.50" from="-590294839#1" to="315894489#0"/>
    <trip id="382" depart="573.00" from="-97669073#1" to="-28944194#1"/>
    <trip id="383" depart="574.50" from="589097326#1" to="421572462#1"/>
    <trip id="384" depart="576.00" from="1371385741#1" to="8101113#1"/>
    <trip id="385" depart="577.50" from="-589340829" to="248378000#4"/>
    <trip id="386" depart="579.00" from="1372244323" to="174059135#1"/>
    <trip id="387" depart="580.50" from="-1371385737" to="579482353#1"/>
    <trip id="388" depart="582.00" from="590294822#0" to="4406538#5"/>
    <trip id="389" depart="583.50" from="-853735143#1" to="215666795"/>
    <trip id="390" depart="585.00" from="214262737#1" to="4071555#1"/>
    <trip id="391" depart="586.50" from="423702947#1" to="215666789"/>
    <trip id="392" depart="588.00" from="1372244322" to="584930687#4"/>
    <trip id="393" depart="589.50" from="28944196#0" to="1371385741#1"/>
    <trip id="394" depart="591.00" from="36854081#0" to="36854081#0"/>
    <trip id="395" depart="592.50" from="97668334#2" to="4406538#10"/>
    <trip id="396" depart="594.00" from="174059153#1" to="34881402#1"/>
    <trip id="397" depart="595.50" from="4406538#8" to="545223627#1"/>
    <trip id="398" depart="597.00" from="29892818#0" to="590294839#1"/>
    <trip id="399" depart="598.50" from="174059211#0" to="579409143"/>
    <trip id="400" depart="600.00" from="420659193#1" to="214262737#1"/>
    <trip id="401" depart="601.50" from="423702947#0" to="421572462#1"/>
    <trip id="402" depart="603.00" from="4406538#4" to="4406626#2"/>
    <trip id="403" depart="604.50" from="4406538#1" to="584930687#0"/>
    <trip id="404" depart="606.00" from="422517473" to="590294839#1"/>
    <trip id="405" depart="607.50" from="4406498#3" to="203937514"/>