<?xml version='1.0' encoding='UTF-8'?>
<additional>
	<taz id="taz_est">
		<tazSource id="-1055762374" weight="1" />
		<tazSink id="-1055762374" weight="1" />
		<tazSource id="-1254075214" weight="1" />
		<tazSink id="-1254075214" weight="1" />
		<tazSource id="-1372244323" weight="1" />
		<tazSink id="-1372244323" weight="1" />
		<tazSource id="-174115149#1" weight="1" />
		<tazSink id="-174115149#1" weight="1" />
		<tazSource id="-214858649" weight="1" />
		<tazSink id="-214858649" weight="1" />
		<tazSource id="-215666792#1" weight="1" />
		<tazSink id="-215666792#1" weight="1" />
		<tazSource id="-234617415" weight="1" />
		<tazSink id="-234617415" weight="1" />
		<tazSource id="-34881334#0" weight="1" />
		<tazSink id="-34881334#0" weight="1" />
		<tazSource id="-36363698#0" weight="1" />
		<tazSink id="-36363698#0" weight="1" />
		<tazSource id="-38556540#0" weight="1" />
		<tazSink id="-38556540#0" weight="1" />
		<tazSource id="-409536725" weight="1" />
		<tazSink id="-409536725" weight="1" />
		<tazSource id="-421572462#0" weight="1" />
		<tazSink id="-421572462#0" weight="1" />
		<tazSource id="1037506376#3" weight="1" />
		<tazSink id="1037506376#3" weight="1" />
		<tazSource id="1037506377#10" weight="1" />
		<tazSink id="1037506377#10" weight="1" />
		<tazSource id="1055762374" weight="1" />
		<tazSink id="1055762374" weight="1" />
		<tazSource id="1055764967#0" weight="1" />
		<tazSink id="1055764967#0" weight="1" />
		<tazSource id="1055764967#1" weight="1" />
		<tazSink id="1055764967#1" weight="1" />
		<tazSource id="1106620641#0" weight="1" />
		<tazSink id="1106620641#0" weight="1" />
		<tazSource id="1106620644#0" weight="1" />
		<tazSink id="1106620644#0" weight="1" />
		<tazSource id="1106620644#8" weight="1" />
		<tazSink id="1106620644#8" weight="1" />
		<tazSource id="1254075214" weight="1" />
		<tazSink id="1254075214" weight="1" />
		<tazSource id="1273792631#2" weight="1" />
		<tazSink id="1273792631#2" weight="1" />
		<tazSource id="1273792633#0" weight="1" />
		<tazSink id="1273792633#0" weight="1" />
		<tazSource id="1273792656#1" weight="1" />
		<tazSink id="1273792656#1" weight="1" />
		<tazSource id="1273792676#0" weight="1" />
		<tazSink id="1273792676#0" weight="1" />
		<tazSource id="1273792679#0" weight="1" />
		<tazSink id="1273792679#0" weight="1" />
		<tazSource id="1273792683#1" weight="1" />
		<tazSink id="1273792683#1" weight="1" />
		<tazSource id="1273792692#0" weight="1" />
		<tazSink id="1273792692#0" weight="1" />
		<tazSource id="1273792697#0" weight="1" />
		<tazSink id="1273792697#0" weight="1" />
		<tazSource id="1273792704#0" weight="1" />
		<tazSink id="1273792704#0" weight="1" />
		<tazSource id="1273792730" weight="1" />
		<tazSink id="1273792730" weight="1" />
		<tazSource id="1273792737#0" weight="1" />
		<tazSink id="1273792737#0" weight="1" />
		<tazSource id="1273792737#6" weight="1" />
		<tazSink id="1273792737#6" weight="1" />
		<tazSource id="1273792740#2" weight="1" />
		<tazSink id="1273792740#2" weight="1" />
		<tazSource id="1349098229#1" weight="1" />
		<tazSink id="1349098229#1" weight="1" />
		<tazSource id="1371385762#0" weight="1" />
		<tazSink id="1371385762#0" weight="1" />
		<tazSource id="1371385762#1" weight="1" />
		<tazSink id="1371385762#1" weight="1" />
		<tazSource id="1371385763#0" weight="1" />
		<tazSink id="1371385763#0" weight="1" />
		<tazSource id="1371385763#1" weight="1" />
		<tazSink id="1371385763#1" weight="1" />
		<tazSource id="1371385764#0" weight="1" />
		<tazSink id="1371385764#0" weight="1" />
		<tazSource id="1371385764#1" weight="1" />
		<tazSink id="1371385764#1" weight="1" />
		<tazSource id="1371385765#0" weight="1" />
		<tazSink id="1371385765#0" weight="1" />
		<tazSource id="1371385765#1" weight="1" />
		<tazSink id="1371385765#1" weight="1" />
		<tazSource id="1371385766" weight="1" />
		<tazSink id="1371385766" weight="1" />
		<tazSource id="1371385767" weight="1" />
		<tazSink id="1371385767" weight="1" />
		<tazSource id="1371385768" weight="1" />
		<tazSink id="1371385768" weight="1" />
		<tazSource id="1371385769" weight="1" />
		<tazSink id="1371385769" weight="1" />
		<tazSource id="1371385770" weight="1" />
		<tazSink id="1371385770" weight="1" />
		<tazSource id="1371385771" weight="1" />
		<tazSink id="1371385771" weight="1" />
		<tazSource id="1371385772" weight="1" />
		<tazSink id="1371385772" weight="1" />
		<tazSource id="1371385773" weight="1" />
		<tazSink id="1371385773" weight="1" />
		<tazSource id="1372244323" weight="1" />
		<tazSink id="1372244323" weight="1" />
		<tazSource id="174059211#0" weight="1" />
		<tazSink id="174059211#0" weight="1" />
		<tazSource id="174059223#2" weight="1" />
		<tazSink id="174059223#2" weight="1" />
		<tazSource id="174115149#1" weight="1" />
		<tazSink id="174115149#1" weight="1" />
		<tazSource id="174115332#0" weight="1" />
		<tazSink id="174115332#0" weight="1" />
		<tazSource id="174115332#1" weight="1" />
		<tazSink id="174115332#1" weight="1" />
		<tazSource id="203937514" weight="1" />
		<tazSink id="203937514" weight="1" />
		<tazSource id="203937531" weight="1" />
		<tazSink id="203937531" weight="1" />
		<tazSource id="209983654#2" weight="1" />
		<tazSink id="209983654#2" weight="1" />
		<tazSource id="214262735#12" weight="1" />
		<tazSink id="214262735#12" weight="1" />
		<tazSource id="214262735#13" weight="1" />
		<tazSink id="214262735#13" weight="1" />
		<tazSource id="214858649" weight="1" />
		<tazSink id="214858649" weight="1" />
		<tazSource id="214862254" weight="1" />
		<tazSink id="214862254" weight="1" />
		<tazSource id="215666785#5" weight="1" />
		<tazSink id="215666785#5" weight="1" />
		<tazSource id="215666792#1" weight="1" />
		<tazSink id="215666792#1" weight="1" />
		<tazSource id="234617415" weight="1" />
		<tazSink id="234617415" weight="1" />
		<tazSource id="248378000#5" weight="1" />
		<tazSink id="248378000#5" weight="1" />
		<tazSource id="248378000#6" weight="1" />
		<tazSink id="248378000#6" weight="1" />
		<tazSource id="29892888#0" weight="1" />
		<tazSink id="29892888#0" weight="1" />
		<tazSource id="30134990#4" weight="1" />
		<tazSink id="30134990#4" weight="1" />
		<tazSource id="30134990#5" weight="1" />
		<tazSink id="30134990#5" weight="1" />
		<tazSource id="322858905#0" weight="1" />
		<tazSink id="322858905#0" weight="1" />
		<tazSource id="34881334#0" weight="1" />
		<tazSink id="34881334#0" weight="1" />
		<tazSource id="36363698#0" weight="1" />
		<tazSink id="36363698#0" weight="1" />
		<tazSource id="36854081#1" weight="1" />
		<tazSink id="36854081#1" weight="1" />
		<tazSource id="36854128" weight="1" />
		<tazSink id="36854128" weight="1" />
		<tazSource id="38556539#1" weight="1" />
		<tazSink id="38556539#1" weight="1" />
		<tazSource id="38556540#0" weight="1" />
		<tazSink id="38556540#0" weight="1" />
		<tazSource id="38706598" weight="1" />
		<tazSink id="38706598" weight="1" />
		<tazSource id="409536725" weight="1" />
		<tazSink id="409536725" weight="1" />
		<tazSource id="420659193#0" weight="1" />
		<tazSink id="420659193#0" weight="1" />
		<tazSource id="420659193#0-AddedOffRampEdge" weight="1" />
		<tazSink id="420659193#0-AddedOffRampEdge" weight="1" />
		<tazSource id="421572462#0" weight="1" />
		<tazSink id="421572462#0" weight="1" />
		<tazSource id="422517479#1" weight="1" />
		<tazSink id="422517479#1" weight="1" />
		<tazSource id="423702947#0" weight="1" />
		<tazSink id="423702947#0" weight="1" />
		<tazSource id="4406573#1" weight="1" />
		<tazSink id="4406573#1" weight="1" />
		<tazSource id="4406582#5" weight="1" />
		<tazSink id="4406582#5" weight="1" />
		<tazSource id="519657941#0" weight="1" />
		<tazSink id="519657941#0" weight="1" />
		<tazSource id="519657941#1" weight="1" />
		<tazSink id="519657941#1" weight="1" />
		<tazSource id="519657941#2" weight="1" />
		<tazSink id="519657941#2" weight="1" />
		<tazSource id="526278326" weight="1" />
		<tazSink id="526278326" weight="1" />
		<tazSource id="551708627#3" weight="1" />
		<tazSink id="551708627#3" weight="1" />
		<tazSource id="551708627#4" weight="1" />
		<tazSink id="551708627#4" weight="1" />
		<tazSource id="575598853#0" weight="1" />
		<tazSink id="575598853#0" weight="1" />
		<tazSource id="575598854#1" weight="1" />
		<tazSink id="575598854#1" weight="1" />
		<tazSource id="579487442" weight="1" />
		<tazSink id="579487442" weight="1" />
		<tazSource id="583985890#0" weight="1" />
		<tazSink id="583985890#0" weight="1" />
		<tazSource id="589301597" weight="1" />
		<tazSink id="589301597" weight="1" />
		<tazSource id="589340823#1" weight="1" />
		<tazSink id="589340823#1" weight="1" />
		<tazSource id="589340823#2" weight="1" />
		<tazSink id="589340823#2" weight="1" />
		<tazSource id="590294821" weight="1" />
		<tazSink id="590294821" weight="1" />
		<tazSource id="590294822#1" weight="1" />
		<tazSink id="590294822#1" weight="1" />
		<tazSource id="590294835" weight="1" />
		<tazSink id="590294835" weight="1" />
		<tazSource id="660720782#0" weight="1" />
		<tazSink id="660720782#0" weight="1" />
		<tazSource id="660720783#0" weight="1" />
		<tazSink id="660720783#0" weight="1" />
		<tazSource id="660720784#3" weight="1" />
		<tazSink id="660720784#3" weight="1" />
		<tazSource id="660720785#0" weight="1" />
		<tazSink id="660720785#0" weight="1" />
		<tazSource id="660720786#0" weight="1" />
		<tazSink id="660720786#0" weight="1" />
		<tazSource id="660720787#0" weight="1" />
		<tazSink id="660720787#0" weight="1" />
		<tazSource id="660720790" weight="1" />
		<tazSink id="660720790" weight="1" />
		<tazSource id="666984266#0" weight="1" />
		<tazSink id="666984266#0" weight="1" />
		<tazSource id="666984266#1" weight="1" />
		<tazSink id="666984266#1" weight="1" />
		<tazSource id="666984270#0" weight="1" />
		<tazSink id="666984270#0" weight="1" />
		<tazSource id="666984278#1" weight="1" />
		<tazSink id="666984278#1" weight="1" />
		<tazSource id="666984280#8" weight="1" />
		<tazSink id="666984280#8" weight="1" />
		<tazSource id="700875020#16" weight="1" />
		<tazSink id="700875020#16" weight="1" />
		<tazSource id="704220102#0" weight="1" />
		<tazSink id="704220102#0" weight="1" />
		<tazSource id="808854848#4" weight="1" />
		<tazSink id="808854848#4" weight="1" />
		<tazSource id="808854849#0" weight="1" />
		<tazSink id="808854849#0" weight="1" />
		<tazSource id="8101427#0" weight="1" />
		<tazSink id="8101427#0" weight="1" />
		<tazSource id="97667264" weight="1" />
		<tazSink id="97667264" weight="1" />
		<tazSource id="97669074#2" weight="1" />
		<tazSink id="97669074#2" weight="1" />
		<tazSource id="97669074#2-AddedOnRampEdge" weight="1" />
		<tazSink id="97669074#2-AddedOnRampEdge" weight="1" />
		<tazSource id="97669074#4" weight="1" />
		<tazSink id="97669074#4" weight="1" />
	</taz>
	<taz id="taz_nord">
		<tazSource id="1106578282#0" weight="1" />
		<tazSink id="1106578282#0" weight="1" />
		<tazSource id="1106620645#4" weight="1" />
		<tazSink id="1106620645#4" weight="1" />
		<tazSource id="174059192#3" weight="1" />
		<tazSink id="174059192#3" weight="1" />
		<tazSource id="322858905#16" weight="1" />
		<tazSink id="322858905#16" weight="1" />
		<tazSource id="4406498#2" weight="1" />
		<tazSink id="4406498#2" weight="1" />
		<tazSource id="4406498#3" weight="1" />
		<tazSink id="4406498#3" weight="1" />
		<tazSource id="4406498#4" weight="1" />
		<tazSink id="4406498#4" weight="1" />
		<tazSource id="4406545#0" weight="1" />
		<tazSink id="4406545#0" weight="1" />
		<tazSource id="4406545#1" weight="1" />
		<tazSink id="4406545#1" weight="1" />
		<tazSource id="4406545#6" weight="1" />
		<tazSink id="4406545#6" weight="1" />
		<tazSource id="4406626#0" weight="1" />
		<tazSink id="4406626#0" weight="1" />
		<tazSource id="700875020#1" weight="1" />
		<tazSink id="700875020#1" weight="1" />
		<tazSource id="808854849#5" weight="1" />
		<tazSink id="808854849#5" weight="1" />
	</taz>
	<taz id="taz_ouest">
		<tazSource id="700875020#0" weight="1" />
		<tazSink id="700875020#0" weight="1" />
	</taz>
</additional>